*HEADING
MODEL DYNAMICALLY GENERATED NOZ_T2_X1.inp
** THIS MESH WAS GENERATED ON Wednesday, April 17th, 2013 at 05:42:18 PM
********************************************************************************
**   Pressure = -10000.0
**   matty = Alloy_713LC
********************************************************************************
** <BEGIN> ~-~~-~~-~~-~~-~~-~~-~~-~~-~~-~~-~~-~~-~~-~~-~ NA_MESH NODES
*NODE, NSET=NA_MESH
1, 0.0, -2.0, 10.0
2, 0.0, -2.0, 10.25
3, 0.0, -2.0, 10.5
4, 0.0, -2.0, 10.75
5, 0.0, -2.0, 11.0
6, 0.0, -1.0, 10.0
7, 0.0, -1.0, 10.5
8, 0.0, -1.0, 11.0
9, 0.0, 0.0, 10.0
10, 0.0, 0.0, 10.25
11, 0.0, 0.0, 10.5
12, 0.0, 0.0, 10.75
13, 0.0, 0.0, 11.0
14, 0.0, 1.0, 10.0
15, 0.0, 1.0, 10.5
16, 0.0, 1.0, 11.0
17, 0.0, 2.0, 10.0
18, 0.0, 2.0, 10.25
19, 0.0, 2.0, 10.5
20, 0.0, 2.0, 10.75
** ... 69 like lines cut
** <END> ~-~~-~~-~~-~~-~~-~~-~~-~~-~~-~~-~~-~~-~~-~~-~ NA_MESH NODES
** <BEGIN> ~-~~-~~-~~-~~-~~-~~-~~-~~-~~-~~-~~-~~-~~-~~-~ NB_MESH NODES
*NODE, NSET=NB_MESH
90, 9.0, -2.0, 5.0
91, 9.0, -2.0, 5.25
92, 9.0, -2.0, 5.5
93, 9.0, -2.0, 5.75
94, 9.0, -2.0, 6.0
95, 9.0, -1.0, 5.0
96, 9.0, -1.0, 5.5
97, 9.0, -1.0, 6.0
98, 9.0, 0.0, 5.0
99, 9.0, 0.0, 5.25
100, 9.0, 0.0, 5.5
101, 9.0, 0.0, 5.75
102, 9.0, 0.0, 6.0
103, 9.0, 1.0, 5.0
104, 9.0, 1.0, 5.5
105, 9.0, 1.0, 6.0
106, 9.0, 2.0, 5.0
107, 9.0, 2.0, 5.25
108, 9.0, 2.0, 5.5
109, 9.0, 2.0, 5.75
** ... 69 like lines cut
** <END> ~-~~-~~-~~-~~-~~-~~-~~-~~-~~-~~-~~-~~-~~-~~-~ NB_MESH NODES
** <BEGIN> ~-~~-~~-~~-~~-~~-~~-~~-~~-~~-~~-~~-~~-~~-~~-~ NC_MESH NODES
*NODE, NSET=NC_MESH
179, 17.0, -2.0, 9.0
180, 17.0, -2.0, 9.25
181, 17.0, -2.0, 9.5
182, 17.0, -2.0, 9.75
183, 17.0, -2.0, 10.0
184, 17.0, -1.0, 9.0
185, 17.0, -1.0, 9.5
186, 17.0, -1.0, 10.0
187, 17.0, 0.0, 9.0
188, 17.0, 0.0, 9.25
189, 17.0, 0.0, 9.5
190, 17.0, 0.0, 9.75
191, 17.0, 0.0, 10.0
192, 17.0, 1.0, 9.0
193, 17.0, 1.0, 9.5
194, 17.0, 1.0, 10.0
195, 17.0, 2.0, 9.0
196, 17.0, 2.0, 9.25
197, 17.0, 2.0, 9.5
198, 17.0, 2.0, 9.75
** ... 69 like lines cut
** <END> ~-~~-~~-~~-~~-~~-~~-~~-~~-~~-~~-~~-~~-~~-~~-~ NC_MESH NODES
*NSET, NSET=NALL
NA_MESH, NB_MESH, NC_MESH
** <BEGIN> ~-~~-~~-~~-~~-~~-~~-~~-~~-~~-~~-~~-~~-~~-~~-~ EA_MESH ELEMENTS
*ELEMENT, TYPE=C3D20R, ELSET=E1
1, 1, 35, 43, 9, 3, 37, 45, 11, 22, 40, 27, 6, 
23, 41, 28, 7, 2, 36, 44, 10
*ELEMENT, TYPE=C3D20R, ELSET=E2
2, 3, 37, 45, 11, 5, 39, 47, 13, 23, 41, 28, 7, 
24, 42, 29, 8, 4, 38, 46, 12
*ELEMENT, TYPE=C3D20R, ELSET=E3
3, 9, 43, 51, 17, 11, 45, 53, 19, 27, 48, 32, 14, 
28, 49, 33, 15, 10, 44, 52, 18
*ELEMENT, TYPE=C3D20R, ELSET=E4
4, 11, 45, 53, 19, 13, 47, 55, 21, 28, 49, 33, 15, 
29, 50, 34, 16, 12, 46, 54, 20
*ELEMENT, TYPE=C3D20R, ELSET=E5
5, 35, 69, 77, 43, 37, 71, 79, 45, 56, 74, 61, 40, 
57, 75, 62, 41, 36, 70, 78, 44
*ELEMENT, TYPE=C3D20R, ELSET=E6
6, 37, 71, 79, 45, 39, 73, 81, 47, 57, 75, 62, 41, 
58, 76, 63, 42, 38, 72, 80, 46
*ELEMENT, TYPE=C3D20R, ELSET=E7
7, 43, 77, 85, 51, 45, 79, 87, 53, 61, 82, 66, 48, 
62, 83, 67, 49, 44, 78, 86, 52
*ELEMENT, TYPE=C3D20R, ELSET=E8
8, 45, 79, 87, 53, 47, 81, 89, 55, 62, 83, 67, 49, 
63, 84, 68, 50, 46, 80, 88, 54
** <END> ~-~~-~~-~~-~~-~~-~~-~~-~~-~~-~~-~~-~~-~~-~~-~ EA_MESH ELEMENTS
** <BEGIN> ~-~~-~~-~~-~~-~~-~~-~~-~~-~~-~~-~~-~~-~~-~~-~ EB_MESH ELEMENTS
*ELEMENT, TYPE=C3D20R, ELSET=E9
9, 90, 124, 132, 98, 92, 126, 134, 100, 111, 129, 116, 95, 
112, 130, 117, 96, 91, 125, 133, 99
*ELEMENT, TYPE=C3D20R, ELSET=E10
10, 92, 126, 134, 100, 94, 128, 136, 102, 112, 130, 117, 96, 
113, 131, 118, 97, 93, 127, 135, 101
*ELEMENT, TYPE=C3D20R, ELSET=E11
11, 98, 132, 140, 106, 100, 134, 142, 108, 116, 137, 121, 103, 
117, 138, 122, 104, 99, 133, 141, 107
*ELEMENT, TYPE=C3D20R, ELSET=E12
12, 100, 134, 142, 108, 102, 136, 144, 110, 117, 138, 122, 104, 
118, 139, 123, 105, 101, 135, 143, 109
*ELEMENT, TYPE=C3D20R, ELSET=E13
13, 124, 158, 166, 132, 126, 160, 168, 134, 145, 163, 150, 129, 
146, 164, 151, 130, 125, 159, 167, 133
*ELEMENT, TYPE=C3D20R, ELSET=E14
14, 126, 160, 168, 134, 128, 162, 170, 136, 146, 164, 151, 130, 
147, 165, 152, 131, 127, 161, 169, 135
*ELEMENT, TYPE=C3D20R, ELSET=E15
15, 132, 166, 174, 140, 134, 168, 176, 142, 150, 171, 155, 137, 
151, 172, 156, 138, 133, 167, 175, 141
*ELEMENT, TYPE=C3D20R, ELSET=E16
16, 134, 168, 176, 142, 136, 170, 178, 144, 151, 172, 156, 138, 
152, 173, 157, 139, 135, 169, 177, 143
** <END> ~-~~-~~-~~-~~-~~-~~-~~-~~-~~-~~-~~-~~-~~-~~-~ EB_MESH ELEMENTS
** <BEGIN> ~-~~-~~-~~-~~-~~-~~-~~-~~-~~-~~-~~-~~-~~-~~-~ EC_MESH ELEMENTS
*ELEMENT, TYPE=C3D20R, ELSET=E17
17, 179, 213, 221, 187, 181, 215, 223, 189, 200, 218, 205, 184, 
201, 219, 206, 185, 180, 214, 222, 188
*ELEMENT, TYPE=C3D20R, ELSET=E18
18, 181, 215, 223, 189, 183, 217, 225, 191, 201, 219, 206, 185, 
202, 220, 207, 186, 182, 216, 224, 190
*ELEMENT, TYPE=C3D20R, ELSET=E19
19, 187, 221, 229, 195, 189, 223, 231, 197, 205, 226, 210, 192, 
206, 227, 211, 193, 188, 222, 230, 196
*ELEMENT, TYPE=C3D20R, ELSET=E20
20, 189, 223, 231, 197, 191, 225, 233, 199, 206, 227, 211, 193, 
207, 228, 212, 194, 190, 224, 232, 198
*ELEMENT, TYPE=C3D20R, ELSET=E21
21, 213, 247, 255, 221, 215, 249, 257, 223, 234, 252, 239, 218, 
235, 253, 240, 219, 214, 248, 256, 222
*ELEMENT, TYPE=C3D20R, ELSET=E22
22, 215, 249, 257, 223, 217, 251, 259, 225, 235, 253, 240, 219, 
236, 254, 241, 220, 216, 250, 258, 224
*ELEMENT, TYPE=C3D20R, ELSET=E23
23, 221, 255, 263, 229, 223, 257, 265, 231, 239, 260, 244, 226, 
240, 261, 245, 227, 222, 256, 264, 230
*ELEMENT, TYPE=C3D20R, ELSET=E24
24, 223, 257, 265, 231, 225, 259, 267, 233, 240, 261, 245, 227, 
241, 262, 246, 228, 224, 258, 266, 232
** <END> ~-~~-~~-~~-~~-~~-~~-~~-~~-~~-~~-~~-~~-~~-~~-~ EC_MESH ELEMENTS
*ELSET, ELSET=EALL
1, 2, 3, 4, 5, 6, 7, 8, 9, 10, 11, 12, 13
14, 15, 16, 17, 18, 19, 20, 21, 22, 23, 24
********************************************************************************
*MATERIAL, NAME=Alloy_713LC_E1
**  ELSET VOL FRAC = 1.0
*DENSITY
0.000748533, -1.0
0.000748533, 1.0
*ELASTIC, TYPE=ENGINEERING CONSTANTS
28873091.7796, 28873091.7796, 28873091.7796, 0.3, 0.3, 0.3, 11105035.2998, 11105035.2998
11105035.2998, -1.0
28865399.0534, 28865399.0534, 28865399.0534, 0.3, 0.3, 0.3, 11102076.559, 11102076.559
11102076.559, 1.0
*EXPANSION, TYPE=ORTHO, ZERO=0.0
5.6e-06, 5.6e-06, 5.6e-06, -1.0
5.6e-06, 5.6e-06, 5.6e-06, 1.0
*SOLID SECTION, ELSET=E1, MATERIAL=Alloy_713LC_E1
*MATERIAL, NAME=Alloy_713LC_E2
**  ELSET VOL FRAC = 1.0
*DENSITY
0.000748533, -1.0
0.000748533, 1.0
*ELASTIC, TYPE=ENGINEERING CONSTANTS
28873091.7796, 28873091.7796, 28873091.7796, 0.3, 0.3, 0.3, 11105035.2998, 11105035.2998
11105035.2998, -1.0
28865399.0534, 28865399.0534, 28865399.0534, 0.3, 0.3, 0.3, 11102076.559, 11102076.559
11102076.559, 1.0
*EXPANSION, TYPE=ORTHO, ZERO=0.0
5.6e-06, 5.6e-06, 5.6e-06, -1.0
5.6e-06, 5.6e-06, 5.6e-06, 1.0
*SOLID SECTION, ELSET=E2, MATERIAL=Alloy_713LC_E2
*MATERIAL, NAME=Alloy_713LC_E3
**  ELSET VOL FRAC = 1.0
*DENSITY
0.000748533, -1.0
0.000748533, 1.0
*ELASTIC, TYPE=ENGINEERING CONSTANTS
28873091.7796, 28873091.7796, 28873091.7796, 0.3, 0.3, 0.3, 11105035.2998, 11105035.2998
11105035.2998, -1.0
28865399.0534, 28865399.0534, 28865399.0534, 0.3, 0.3, 0.3, 11102076.559, 11102076.559
11102076.559, 1.0
*EXPANSION, TYPE=ORTHO, ZERO=0.0
5.6e-06, 5.6e-06, 5.6e-06, -1.0
5.6e-06, 5.6e-06, 5.6e-06, 1.0
*SOLID SECTION, ELSET=E3, MATERIAL=Alloy_713LC_E3
*MATERIAL, NAME=Alloy_713LC_E4
**  ELSET VOL FRAC = 1.0
*DENSITY
0.000748533, -1.0
0.000748533, 1.0
*ELASTIC, TYPE=ENGINEERING CONSTANTS
28873091.7796, 28873091.7796, 28873091.7796, 0.3, 0.3, 0.3, 11105035.2998, 11105035.2998
11105035.2998, -1.0
28865399.0534, 28865399.0534, 28865399.0534, 0.3, 0.3, 0.3, 11102076.559, 11102076.559
11102076.559, 1.0
*EXPANSION, TYPE=ORTHO, ZERO=0.0
5.6e-06, 5.6e-06, 5.6e-06, -1.0
5.6e-06, 5.6e-06, 5.6e-06, 1.0
*SOLID SECTION, ELSET=E4, MATERIAL=Alloy_713LC_E4
*MATERIAL, NAME=Alloy_713LC_E5
**  ELSET VOL FRAC = 1.0
*DENSITY
0.000748533, -1.0
0.000748533, 1.0
*ELASTIC, TYPE=ENGINEERING CONSTANTS
28873091.7796, 28873091.7796, 28873091.7796, 0.3, 0.3, 0.3, 11105035.2998, 11105035.2998
11105035.2998, -1.0
28865399.0534, 28865399.0534, 28865399.0534, 0.3, 0.3, 0.3, 11102076.559, 11102076.559
11102076.559, 1.0
*EXPANSION, TYPE=ORTHO, ZERO=0.0
5.6e-06, 5.6e-06, 5.6e-06, -1.0
5.6e-06, 5.6e-06, 5.6e-06, 1.0
*SOLID SECTION, ELSET=E5, MATERIAL=Alloy_713LC_E5
*MATERIAL, NAME=Alloy_713LC_E6
**  ELSET VOL FRAC = 1.0
*DENSITY
0.000748533, -1.0
0.000748533, 1.0
*ELASTIC, TYPE=ENGINEERING CONSTANTS
28873091.7796, 28873091.7796, 28873091.7796, 0.3, 0.3, 0.3, 11105035.2998, 11105035.2998
11105035.2998, -1.0
28865399.0534, 28865399.0534, 28865399.0534, 0.3, 0.3, 0.3, 11102076.559, 11102076.559
11102076.559, 1.0
*EXPANSION, TYPE=ORTHO, ZERO=0.0
5.6e-06, 5.6e-06, 5.6e-06, -1.0
5.6e-06, 5.6e-06, 5.6e-06, 1.0
*SOLID SECTION, ELSET=E6, MATERIAL=Alloy_713LC_E6
*MATERIAL, NAME=Alloy_713LC_E7
**  ELSET VOL FRAC = 1.0
*DENSITY
0.000748533, -1.0
0.000748533, 1.0
*ELASTIC, TYPE=ENGINEERING CONSTANTS
28873091.7796, 28873091.7796, 28873091.7796, 0.3, 0.3, 0.3, 11105035.2998, 11105035.2998
11105035.2998, -1.0
28865399.0534, 28865399.0534, 28865399.0534, 0.3, 0.3, 0.3, 11102076.559, 11102076.559
11102076.559, 1.0
*EXPANSION, TYPE=ORTHO, ZERO=0.0
5.6e-06, 5.6e-06, 5.6e-06, -1.0
5.6e-06, 5.6e-06, 5.6e-06, 1.0
*SOLID SECTION, ELSET=E7, MATERIAL=Alloy_713LC_E7
*MATERIAL, NAME=Alloy_713LC_E8
**  ELSET VOL FRAC = 1.0
*DENSITY
0.000748533, -1.0
0.000748533, 1.0
*ELASTIC, TYPE=ENGINEERING CONSTANTS
28873091.7796, 28873091.7796, 28873091.7796, 0.3, 0.3, 0.3, 11105035.2998, 11105035.2998
11105035.2998, -1.0
28865399.0534, 28865399.0534, 28865399.0534, 0.3, 0.3, 0.3, 11102076.559, 11102076.559
11102076.559, 1.0
*EXPANSION, TYPE=ORTHO, ZERO=0.0
5.6e-06, 5.6e-06, 5.6e-06, -1.0
5.6e-06, 5.6e-06, 5.6e-06, 1.0
*SOLID SECTION, ELSET=E8, MATERIAL=Alloy_713LC_E8
********************************************************************************
*MATERIAL, NAME=Alloy_713LC_E9
**  ELSET VOL FRAC = 1.0
*DENSITY
0.000748533, -1.0
0.000748533, 1.0
*ELASTIC, TYPE=ENGINEERING CONSTANTS
28873091.7796, 28873091.7796, 28873091.7796, 0.3, 0.3, 0.3, 11105035.2998, 11105035.2998
11105035.2998, -1.0
28865399.0534, 28865399.0534, 28865399.0534, 0.3, 0.3, 0.3, 11102076.559, 11102076.559
11102076.559, 1.0
*EXPANSION, TYPE=ORTHO, ZERO=0.0
5.6e-06, 5.6e-06, 5.6e-06, -1.0
5.6e-06, 5.6e-06, 5.6e-06, 1.0
*SOLID SECTION, ELSET=E9, MATERIAL=Alloy_713LC_E9
*MATERIAL, NAME=Alloy_713LC_E10
**  ELSET VOL FRAC = 1.0
*DENSITY
0.000748533, -1.0
0.000748533, 1.0
*ELASTIC, TYPE=ENGINEERING CONSTANTS
28873091.7796, 28873091.7796, 28873091.7796, 0.3, 0.3, 0.3, 11105035.2998, 11105035.2998
11105035.2998, -1.0
28865399.0534, 28865399.0534, 28865399.0534, 0.3, 0.3, 0.3, 11102076.559, 11102076.559
11102076.559, 1.0
*EXPANSION, TYPE=ORTHO, ZERO=0.0
5.6e-06, 5.6e-06, 5.6e-06, -1.0
5.6e-06, 5.6e-06, 5.6e-06, 1.0
*SOLID SECTION, ELSET=E10, MATERIAL=Alloy_713LC_E10
*MATERIAL, NAME=Alloy_713LC_E11
**  ELSET VOL FRAC = 1.0
*DENSITY
0.000748533, -1.0
0.000748533, 1.0
*ELASTIC, TYPE=ENGINEERING CONSTANTS
28873091.7796, 28873091.7796, 28873091.7796, 0.3, 0.3, 0.3, 11105035.2998, 11105035.2998
11105035.2998, -1.0
28865399.0534, 28865399.0534, 28865399.0534, 0.3, 0.3, 0.3, 11102076.559, 11102076.559
11102076.559, 1.0
*EXPANSION, TYPE=ORTHO, ZERO=0.0
5.6e-06, 5.6e-06, 5.6e-06, -1.0
5.6e-06, 5.6e-06, 5.6e-06, 1.0
*SOLID SECTION, ELSET=E11, MATERIAL=Alloy_713LC_E11
*MATERIAL, NAME=Alloy_713LC_E12
**  ELSET VOL FRAC = 1.0
*DENSITY
0.000748533, -1.0
0.000748533, 1.0
*ELASTIC, TYPE=ENGINEERING CONSTANTS
28873091.7796, 28873091.7796, 28873091.7796, 0.3, 0.3, 0.3, 11105035.2998, 11105035.2998
11105035.2998, -1.0
28865399.0534, 28865399.0534, 28865399.0534, 0.3, 0.3, 0.3, 11102076.559, 11102076.559
11102076.559, 1.0
*EXPANSION, TYPE=ORTHO, ZERO=0.0
5.6e-06, 5.6e-06, 5.6e-06, -1.0
5.6e-06, 5.6e-06, 5.6e-06, 1.0
*SOLID SECTION, ELSET=E12, MATERIAL=Alloy_713LC_E12
*MATERIAL, NAME=Alloy_713LC_E13
**  ELSET VOL FRAC = 1.0
*DENSITY
0.000748533, -1.0
0.000748533, 1.0
*ELASTIC, TYPE=ENGINEERING CONSTANTS
28873091.7796, 28873091.7796, 28873091.7796, 0.3, 0.3, 0.3, 11105035.2998, 11105035.2998
11105035.2998, -1.0
28865399.0534, 28865399.0534, 28865399.0534, 0.3, 0.3, 0.3, 11102076.559, 11102076.559
11102076.559, 1.0
*EXPANSION, TYPE=ORTHO, ZERO=0.0
5.6e-06, 5.6e-06, 5.6e-06, -1.0
5.6e-06, 5.6e-06, 5.6e-06, 1.0
*SOLID SECTION, ELSET=E13, MATERIAL=Alloy_713LC_E13
*MATERIAL, NAME=Alloy_713LC_E14
**  ELSET VOL FRAC = 1.0
*DENSITY
0.000748533, -1.0
0.000748533, 1.0
*ELASTIC, TYPE=ENGINEERING CONSTANTS
28873091.7796, 28873091.7796, 28873091.7796, 0.3, 0.3, 0.3, 11105035.2998, 11105035.2998
11105035.2998, -1.0
28865399.0534, 28865399.0534, 28865399.0534, 0.3, 0.3, 0.3, 11102076.559, 11102076.559
11102076.559, 1.0
*EXPANSION, TYPE=ORTHO, ZERO=0.0
5.6e-06, 5.6e-06, 5.6e-06, -1.0
5.6e-06, 5.6e-06, 5.6e-06, 1.0
*SOLID SECTION, ELSET=E14, MATERIAL=Alloy_713LC_E14
*MATERIAL, NAME=Alloy_713LC_E15
**  ELSET VOL FRAC = 1.0
*DENSITY
0.000748533, -1.0
0.000748533, 1.0
*ELASTIC, TYPE=ENGINEERING CONSTANTS
28873091.7796, 28873091.7796, 28873091.7796, 0.3, 0.3, 0.3, 11105035.2998, 11105035.2998
11105035.2998, -1.0
28865399.0534, 28865399.0534, 28865399.0534, 0.3, 0.3, 0.3, 11102076.559, 11102076.559
11102076.559, 1.0
*EXPANSION, TYPE=ORTHO, ZERO=0.0
5.6e-06, 5.6e-06, 5.6e-06, -1.0
5.6e-06, 5.6e-06, 5.6e-06, 1.0
*SOLID SECTION, ELSET=E15, MATERIAL=Alloy_713LC_E15
*MATERIAL, NAME=Alloy_713LC_E16
**  ELSET VOL FRAC = 1.0
*DENSITY
0.000748533, -1.0
0.000748533, 1.0
*ELASTIC, TYPE=ENGINEERING CONSTANTS
28873091.7796, 28873091.7796, 28873091.7796, 0.3, 0.3, 0.3, 11105035.2998, 11105035.2998
11105035.2998, -1.0
28865399.0534, 28865399.0534, 28865399.0534, 0.3, 0.3, 0.3, 11102076.559, 11102076.559
11102076.559, 1.0
*EXPANSION, TYPE=ORTHO, ZERO=0.0
5.6e-06, 5.6e-06, 5.6e-06, -1.0
5.6e-06, 5.6e-06, 5.6e-06, 1.0
*SOLID SECTION, ELSET=E16, MATERIAL=Alloy_713LC_E16
********************************************************************************
*MATERIAL, NAME=Alloy_713LC_E17
**  ELSET VOL FRAC = 1.0
*DENSITY
0.000748533, -1.0
0.000748533, 1.0
*ELASTIC, TYPE=ENGINEERING CONSTANTS
28873091.7796, 28873091.7796, 28873091.7796, 0.3, 0.3, 0.3, 11105035.2998, 11105035.2998
11105035.2998, -1.0
28865399.0534, 28865399.0534, 28865399.0534, 0.3, 0.3, 0.3, 11102076.559, 11102076.559
11102076.559, 1.0
*EXPANSION, TYPE=ORTHO, ZERO=0.0
5.6e-06, 5.6e-06, 5.6e-06, -1.0
5.6e-06, 5.6e-06, 5.6e-06, 1.0
*SOLID SECTION, ELSET=E17, MATERIAL=Alloy_713LC_E17
*MATERIAL, NAME=Alloy_713LC_E18
**  ELSET VOL FRAC = 1.0
*DENSITY
0.000748533, -1.0
0.000748533, 1.0
*ELASTIC, TYPE=ENGINEERING CONSTANTS
28873091.7796, 28873091.7796, 28873091.7796, 0.3, 0.3, 0.3, 11105035.2998, 11105035.2998
11105035.2998, -1.0
28865399.0534, 28865399.0534, 28865399.0534, 0.3, 0.3, 0.3, 11102076.559, 11102076.559
11102076.559, 1.0
*EXPANSION, TYPE=ORTHO, ZERO=0.0
5.6e-06, 5.6e-06, 5.6e-06, -1.0
5.6e-06, 5.6e-06, 5.6e-06, 1.0
*SOLID SECTION, ELSET=E18, MATERIAL=Alloy_713LC_E18
*MATERIAL, NAME=Alloy_713LC_E19
**  ELSET VOL FRAC = 1.0
*DENSITY
0.000748533, -1.0
0.000748533, 1.0
*ELASTIC, TYPE=ENGINEERING CONSTANTS
28873091.7796, 28873091.7796, 28873091.7796, 0.3, 0.3, 0.3, 11105035.2998, 11105035.2998
11105035.2998, -1.0
28865399.0534, 28865399.0534, 28865399.0534, 0.3, 0.3, 0.3, 11102076.559, 11102076.559
11102076.559, 1.0
*EXPANSION, TYPE=ORTHO, ZERO=0.0
5.6e-06, 5.6e-06, 5.6e-06, -1.0
5.6e-06, 5.6e-06, 5.6e-06, 1.0
*SOLID SECTION, ELSET=E19, MATERIAL=Alloy_713LC_E19
*MATERIAL, NAME=Alloy_713LC_E20
**  ELSET VOL FRAC = 1.0
*DENSITY
0.000748533, -1.0
0.000748533, 1.0
*ELASTIC, TYPE=ENGINEERING CONSTANTS
28873091.7796, 28873091.7796, 28873091.7796, 0.3, 0.3, 0.3, 11105035.2998, 11105035.2998
11105035.2998, -1.0
28865399.0534, 28865399.0534, 28865399.0534, 0.3, 0.3, 0.3, 11102076.559, 11102076.559
11102076.559, 1.0
*EXPANSION, TYPE=ORTHO, ZERO=0.0
5.6e-06, 5.6e-06, 5.6e-06, -1.0
5.6e-06, 5.6e-06, 5.6e-06, 1.0
*SOLID SECTION, ELSET=E20, MATERIAL=Alloy_713LC_E20
*MATERIAL, NAME=Alloy_713LC_E21
**  ELSET VOL FRAC = 1.0
*DENSITY
0.000748533, -1.0
0.000748533, 1.0
*ELASTIC, TYPE=ENGINEERING CONSTANTS
28873091.7796, 28873091.7796, 28873091.7796, 0.3, 0.3, 0.3, 11105035.2998, 11105035.2998
11105035.2998, -1.0
28865399.0534, 28865399.0534, 28865399.0534, 0.3, 0.3, 0.3, 11102076.559, 11102076.559
11102076.559, 1.0
*EXPANSION, TYPE=ORTHO, ZERO=0.0
5.6e-06, 5.6e-06, 5.6e-06, -1.0
5.6e-06, 5.6e-06, 5.6e-06, 1.0
*SOLID SECTION, ELSET=E21, MATERIAL=Alloy_713LC_E21
*MATERIAL, NAME=Alloy_713LC_E22
**  ELSET VOL FRAC = 1.0
*DENSITY
0.000748533, -1.0
0.000748533, 1.0
*ELASTIC, TYPE=ENGINEERING CONSTANTS
28873091.7796, 28873091.7796, 28873091.7796, 0.3, 0.3, 0.3, 11105035.2998, 11105035.2998
11105035.2998, -1.0
28865399.0534, 28865399.0534, 28865399.0534, 0.3, 0.3, 0.3, 11102076.559, 11102076.559
11102076.559, 1.0
*EXPANSION, TYPE=ORTHO, ZERO=0.0
5.6e-06, 5.6e-06, 5.6e-06, -1.0
5.6e-06, 5.6e-06, 5.6e-06, 1.0
*SOLID SECTION, ELSET=E22, MATERIAL=Alloy_713LC_E22
*MATERIAL, NAME=Alloy_713LC_E23
**  ELSET VOL FRAC = 1.0
*DENSITY
0.000748533, -1.0
0.000748533, 1.0
*ELASTIC, TYPE=ENGINEERING CONSTANTS
28873091.7796, 28873091.7796, 28873091.7796, 0.3, 0.3, 0.3, 11105035.2998, 11105035.2998
11105035.2998, -1.0
28865399.0534, 28865399.0534, 28865399.0534, 0.3, 0.3, 0.3, 11102076.559, 11102076.559
11102076.559, 1.0
*EXPANSION, TYPE=ORTHO, ZERO=0.0
5.6e-06, 5.6e-06, 5.6e-06, -1.0
5.6e-06, 5.6e-06, 5.6e-06, 1.0
*SOLID SECTION, ELSET=E23, MATERIAL=Alloy_713LC_E23
*MATERIAL, NAME=Alloy_713LC_E24
**  ELSET VOL FRAC = 1.0
*DENSITY
0.000748533, -1.0
0.000748533, 1.0
*ELASTIC, TYPE=ENGINEERING CONSTANTS
28873091.7796, 28873091.7796, 28873091.7796, 0.3, 0.3, 0.3, 11105035.2998, 11105035.2998
11105035.2998, -1.0
28865399.0534, 28865399.0534, 28865399.0534, 0.3, 0.3, 0.3, 11102076.559, 11102076.559
11102076.559, 1.0
*EXPANSION, TYPE=ORTHO, ZERO=0.0
5.6e-06, 5.6e-06, 5.6e-06, -1.0
5.6e-06, 5.6e-06, 5.6e-06, 1.0
*SOLID SECTION, ELSET=E24, MATERIAL=Alloy_713LC_E24
********************************************************************************
********************************************************************************
** <BEGIN> ~-~~-~~-~~-~~-~ AHB_A HINGE LINE NODE SET
*NSET, NSET=AHB_A
71, 75, 79, 83, 87
** <END>   ~-~~-~~-~~-~~-~ AHB_A HINGE LINE NODE SET
** <BEGIN> ~-~~-~~-~~-~~-~ S_AHB_A_LINE HINGE SLAVE SURFACE (LINE)
*SURFACE, NAME=S_AHB_A_LINE, TYPE=NODE
AHB_A
** <END>   ~-~~-~~-~~-~~-~ S_AHB_A_LINE HINGE SLAVE SURFACE (LINE)
** <BEGIN> ~-~~-~~-~~-~~-~ M_AHB_B_SURF HINGE MASTER SURFACE
*SURFACE, NAME=M_AHB_B_SURF, TYPE=ELEMENT
9, S6
10, S6
11, S6
12, S6
** <END>   ~-~~-~~-~~-~~-~ M_AHB_B_SURF HINGE MASTER SURFACE
*TIE 
S_AHB_A_LINE, M_AHB_B_SURF
********************************************************************************
** <BEGIN> ~-~~-~~-~~-~~-~ BBC_B JOIN SLAVE SURFACE
*SURFACE, NAME=BBC_BS, TYPE=ELEMENT
13, S4
14, S4
15, S4
16, S4
** <END>   ~-~~-~~-~~-~~-~ BBC_B JOIN SLAVE SURFACE
** <BEGIN> ~-~~-~~-~~-~~-~ BBC_C JOIN MASTER SURFACE
*SURFACE, NAME=BBC_CS, TYPE=ELEMENT
17, S6
18, S6
19, S6
20, S6
** <END>   ~-~~-~~-~~-~~-~ BBC_C JOIN MASTER SURFACE
*TIE 
BBC_BS, BBC_CS
********************************************************************************
*INITIAL CONDITIONS, TYPE=TEMPERATURE
NALL, 0.0
********************************************************************************
*BOUNDARY
3, 1
3, 3
7, 1
7, 3
11, 1
11, 3
15, 1
15, 3
19, 1
19, 3
27, 2
28, 2
29, 2
43, 2
44, 2
45, 2
46, 2
47, 2
61, 2
62, 2
** ... 38 like lines cut
*STEP
*STATIC
*DLOAD
1, P1, 10000.0
3, P1, 10000.0
5, P1, 10000.0
7, P1, 10000.0
9, P1, 10000.0
11, P1, 10000.0
13, P1, 10000.0
15, P1, 10000.0
17, P1, 10000.0
19, P1, 10000.0
21, P1, 10000.0
23, P1, 10000.0
********************************************************************************
*NODE PRINT, NSET=NALL
U
*NODE FILE, OUTPUT=3D
U
*EL PRINT, ELSET=EALL
S
*EL FILE, OUTPUT=3D
S
*END STEP
********************************************************************************
