*HEADING
MODEL DYNAMICALLY GENERATED NOZ_T2_PLAY11_X1.inp
** THIS MESH WAS GENERATED ON Friday, April 26th, 2013 at 03:50:46 PM
********************************************************************************
**   Pressure = 10000.0
**   matty = Alloy_713LC
********************************************************************************
** <BEGIN> ~-~~-~~-~~-~~-~ NA_MESH NODES
*NODE, NSET=NA_MESH
1, 0.0, -12.0, 10.0
2, 0.0, -12.0, 10.25
3, 0.0, -12.0, 10.5
4, 0.0, -12.0, 10.75
5, 0.0, -12.0, 11.0
6, 0.0, -9.0, 10.0
7, 0.0, -9.0, 10.5
8, 0.0, -9.0, 11.0
9, 0.0, -6.0, 10.0
10, 0.0, -6.0, 10.25
11, 0.0, -6.0, 10.5
12, 0.0, -6.0, 10.75
13, 0.0, -6.0, 11.0
14, 0.0, -3.0, 10.0
15, 0.0, -3.0, 10.5
16, 0.0, -3.0, 11.0
17, 0.0, 0.0, 10.0
18, 0.0, 0.0, 10.25
19, 0.0, 0.0, 10.5
20, 0.0, 0.0, 10.75
** ... 137 like lines cut
** <END> ~-~~-~~-~~-~~-~ NA_MESH NODES
** <BEGIN> ~-~~-~~-~~-~~-~ NB_MESH NODES
*NODE, NSET=NB_MESH
158, 9.0, -12.0, 5.0
159, 9.0, -12.0, 5.25
160, 9.0, -12.0, 5.5
161, 9.0, -12.0, 5.75
162, 9.0, -12.0, 6.0
163, 9.0, -9.0, 5.0
164, 9.0, -9.0, 5.5
165, 9.0, -9.0, 6.0
166, 9.0, -6.0, 5.0
167, 9.0, -6.0, 5.25
168, 9.0, -6.0, 5.5
169, 9.0, -6.0, 5.75
170, 9.0, -6.0, 6.0
171, 9.0, -3.0, 5.0
172, 9.0, -3.0, 5.5
173, 9.0, -3.0, 6.0
174, 9.0, 0.0, 5.0
175, 9.0, 0.0, 5.25
176, 9.0, 0.0, 5.5
177, 9.0, 0.0, 5.75
** ... 137 like lines cut
** <END> ~-~~-~~-~~-~~-~ NB_MESH NODES
** <BEGIN> ~-~~-~~-~~-~~-~ NC_MESH NODES
*NODE, NSET=NC_MESH
315, 17.0, -12.0, 9.0
316, 17.0, -12.0, 9.25
317, 17.0, -12.0, 9.5
318, 17.0, -12.0, 9.75
319, 17.0, -12.0, 10.0
320, 17.0, -10.0, 9.0
321, 17.0, -10.0, 9.5
322, 17.0, -10.0, 10.0
323, 17.0, -8.0, 9.0
324, 17.0, -8.0, 9.25
325, 17.0, -8.0, 9.5
326, 17.0, -8.0, 9.75
327, 17.0, -8.0, 10.0
328, 17.0, -6.0, 9.0
329, 17.0, -6.0, 9.5
330, 17.0, -6.0, 10.0
331, 17.0, -4.0, 9.0
332, 17.0, -4.0, 9.25
333, 17.0, -4.0, 9.5
334, 17.0, -4.0, 9.75
** ... 205 like lines cut
** <END> ~-~~-~~-~~-~~-~ NC_MESH NODES
*NSET, NSET=NALL
NA_MESH, NB_MESH, NC_MESH
** <BEGIN> ~-~~-~~-~~-~~-~ EA_MESH ELEMENTS
*ELEMENT, TYPE=C3D20R, ELSET=E1
1, 1, 61, 69, 9, 3, 63, 71, 11, 38, 66, 43, 6, 
39, 67, 44, 7, 2, 62, 70, 10
*ELEMENT, TYPE=C3D20R, ELSET=E2
2, 3, 63, 71, 11, 5, 65, 73, 13, 39, 67, 44, 7, 
40, 68, 45, 8, 4, 64, 72, 12
*ELEMENT, TYPE=C3D20R, ELSET=E3
3, 9, 69, 77, 17, 11, 71, 79, 19, 43, 74, 48, 14, 
44, 75, 49, 15, 10, 70, 78, 18
*ELEMENT, TYPE=C3D20R, ELSET=E4
4, 11, 71, 79, 19, 13, 73, 81, 21, 44, 75, 49, 15, 
45, 76, 50, 16, 12, 72, 80, 20
*ELEMENT, TYPE=C3D20R, ELSET=E5
5, 17, 77, 85, 25, 19, 79, 87, 27, 48, 82, 53, 22, 
49, 83, 54, 23, 18, 78, 86, 26
*ELEMENT, TYPE=C3D20R, ELSET=E6
6, 19, 79, 87, 27, 21, 81, 89, 29, 49, 83, 54, 23, 
50, 84, 55, 24, 20, 80, 88, 28
*ELEMENT, TYPE=C3D20R, ELSET=E7
7, 25, 85, 93, 33, 27, 87, 95, 35, 53, 90, 58, 30, 
54, 91, 59, 31, 26, 86, 94, 34
*ELEMENT, TYPE=C3D20R, ELSET=E8
8, 27, 87, 95, 35, 29, 89, 97, 37, 54, 91, 59, 31, 
55, 92, 60, 32, 28, 88, 96, 36
*ELEMENT, TYPE=C3D20R, ELSET=E9
9, 61, 121, 129, 69, 63, 123, 131, 71, 98, 126, 103, 66, 
99, 127, 104, 67, 62, 122, 130, 70
*ELEMENT, TYPE=C3D20R, ELSET=E10
10, 63, 123, 131, 71, 65, 125, 133, 73, 99, 127, 104, 67, 
100, 128, 105, 68, 64, 124, 132, 72
*ELEMENT, TYPE=C3D20R, ELSET=E11
11, 69, 129, 137, 77, 71, 131, 139, 79, 103, 134, 108, 74, 
104, 135, 109, 75, 70, 130, 138, 78
*ELEMENT, TYPE=C3D20R, ELSET=E12
12, 71, 131, 139, 79, 73, 133, 141, 81, 104, 135, 109, 75, 
105, 136, 110, 76, 72, 132, 140, 80
*ELEMENT, TYPE=C3D20R, ELSET=E13
13, 77, 137, 145, 85, 79, 139, 147, 87, 108, 142, 113, 82, 
109, 143, 114, 83, 78, 138, 146, 86
*ELEMENT, TYPE=C3D20R, ELSET=E14
14, 79, 139, 147, 87, 81, 141, 149, 89, 109, 143, 114, 83, 
110, 144, 115, 84, 80, 140, 148, 88
*ELEMENT, TYPE=C3D20R, ELSET=E15
15, 85, 145, 153, 93, 87, 147, 155, 95, 113, 150, 118, 90, 
114, 151, 119, 91, 86, 146, 154, 94
*ELEMENT, TYPE=C3D20R, ELSET=E16
16, 87, 147, 155, 95, 89, 149, 157, 97, 114, 151, 119, 91, 
115, 152, 120, 92, 88, 148, 156, 96
** <END> ~-~~-~~-~~-~~-~ EA_MESH ELEMENTS
** <BEGIN> ~-~~-~~-~~-~~-~ EB_MESH ELEMENTS
*ELEMENT, TYPE=C3D20R, ELSET=E17
17, 158, 218, 226, 166, 160, 220, 228, 168, 195, 223, 200, 163, 
196, 224, 201, 164, 159, 219, 227, 167
*ELEMENT, TYPE=C3D20R, ELSET=E18
18, 160, 220, 228, 168, 162, 222, 230, 170, 196, 224, 201, 164, 
197, 225, 202, 165, 161, 221, 229, 169
*ELEMENT, TYPE=C3D20R, ELSET=E19
19, 166, 226, 234, 174, 168, 228, 236, 176, 200, 231, 205, 171, 
201, 232, 206, 172, 167, 227, 235, 175
*ELEMENT, TYPE=C3D20R, ELSET=E20
20, 168, 228, 236, 176, 170, 230, 238, 178, 201, 232, 206, 172, 
202, 233, 207, 173, 169, 229, 237, 177
*ELEMENT, TYPE=C3D20R, ELSET=E21
21, 174, 234, 242, 182, 176, 236, 244, 184, 205, 239, 210, 179, 
206, 240, 211, 180, 175, 235, 243, 183
*ELEMENT, TYPE=C3D20R, ELSET=E22
22, 176, 236, 244, 184, 178, 238, 246, 186, 206, 240, 211, 180, 
207, 241, 212, 181, 177, 237, 245, 185
*ELEMENT, TYPE=C3D20R, ELSET=E23
23, 182, 242, 250, 190, 184, 244, 252, 192, 210, 247, 215, 187, 
211, 248, 216, 188, 183, 243, 251, 191
*ELEMENT, TYPE=C3D20R, ELSET=E24
24, 184, 244, 252, 192, 186, 246, 254, 194, 211, 248, 216, 188, 
212, 249, 217, 189, 185, 245, 253, 193
*ELEMENT, TYPE=C3D20R, ELSET=E25
25, 218, 278, 286, 226, 220, 280, 288, 228, 255, 283, 260, 223, 
256, 284, 261, 224, 219, 279, 287, 227
*ELEMENT, TYPE=C3D20R, ELSET=E26
26, 220, 280, 288, 228, 222, 282, 290, 230, 256, 284, 261, 224, 
257, 285, 262, 225, 221, 281, 289, 229
*ELEMENT, TYPE=C3D20R, ELSET=E27
27, 226, 286, 294, 234, 228, 288, 296, 236, 260, 291, 265, 231, 
261, 292, 266, 232, 227, 287, 295, 235
*ELEMENT, TYPE=C3D20R, ELSET=E28
28, 228, 288, 296, 236, 230, 290, 298, 238, 261, 292, 266, 232, 
262, 293, 267, 233, 229, 289, 297, 237
*ELEMENT, TYPE=C3D20R, ELSET=E29
29, 234, 294, 302, 242, 236, 296, 304, 244, 265, 299, 270, 239, 
266, 300, 271, 240, 235, 295, 303, 243
*ELEMENT, TYPE=C3D20R, ELSET=E30
30, 236, 296, 304, 244, 238, 298, 306, 246, 266, 300, 271, 240, 
267, 301, 272, 241, 237, 297, 305, 245
*ELEMENT, TYPE=C3D20R, ELSET=E31
31, 242, 302, 310, 250, 244, 304, 312, 252, 270, 307, 275, 247, 
271, 308, 276, 248, 243, 303, 311, 251
*ELEMENT, TYPE=C3D20R, ELSET=E32
32, 244, 304, 312, 252, 246, 306, 314, 254, 271, 308, 276, 248, 
272, 309, 277, 249, 245, 305, 313, 253
** <END> ~-~~-~~-~~-~~-~ EB_MESH ELEMENTS
** <BEGIN> ~-~~-~~-~~-~~-~ EC_MESH ELEMENTS
*ELEMENT, TYPE=C3D20R, ELSET=E33
33, 315, 401, 409, 323, 317, 403, 411, 325, 368, 406, 373, 320, 
369, 407, 374, 321, 316, 402, 410, 324
*ELEMENT, TYPE=C3D20R, ELSET=E34
34, 317, 403, 411, 325, 319, 405, 413, 327, 369, 407, 374, 321, 
370, 408, 375, 322, 318, 404, 412, 326
*ELEMENT, TYPE=C3D20R, ELSET=E35
35, 323, 409, 417, 331, 325, 411, 419, 333, 373, 414, 378, 328, 
374, 415, 379, 329, 324, 410, 418, 332
*ELEMENT, TYPE=C3D20R, ELSET=E36
36, 325, 411, 419, 333, 327, 413, 421, 335, 374, 415, 379, 329, 
375, 416, 380, 330, 326, 412, 420, 334
*ELEMENT, TYPE=C3D20R, ELSET=E37
37, 331, 417, 425, 339, 333, 419, 427, 341, 378, 422, 383, 336, 
379, 423, 384, 337, 332, 418, 426, 340
*ELEMENT, TYPE=C3D20R, ELSET=E38
38, 333, 419, 427, 341, 335, 421, 429, 343, 379, 423, 384, 337, 
380, 424, 385, 338, 334, 420, 428, 342
*ELEMENT, TYPE=C3D20R, ELSET=E39
39, 339, 425, 433, 347, 341, 427, 435, 349, 383, 430, 388, 344, 
384, 431, 389, 345, 340, 426, 434, 348
*ELEMENT, TYPE=C3D20R, ELSET=E40
40, 341, 427, 435, 349, 343, 429, 437, 351, 384, 431, 389, 345, 
385, 432, 390, 346, 342, 428, 436, 350
*ELEMENT, TYPE=C3D20R, ELSET=E41
41, 347, 433, 441, 355, 349, 435, 443, 357, 388, 438, 393, 352, 
389, 439, 394, 353, 348, 434, 442, 356
*ELEMENT, TYPE=C3D20R, ELSET=E42
42, 349, 435, 443, 357, 351, 437, 445, 359, 389, 439, 394, 353, 
390, 440, 395, 354, 350, 436, 444, 358
*ELEMENT, TYPE=C3D20R, ELSET=E43
43, 355, 441, 449, 363, 357, 443, 451, 365, 393, 446, 398, 360, 
394, 447, 399, 361, 356, 442, 450, 364
*ELEMENT, TYPE=C3D20R, ELSET=E44
44, 357, 443, 451, 365, 359, 445, 453, 367, 394, 447, 399, 361, 
395, 448, 400, 362, 358, 444, 452, 366
*ELEMENT, TYPE=C3D20R, ELSET=E45
45, 401, 487, 495, 409, 403, 489, 497, 411, 454, 492, 459, 406, 
455, 493, 460, 407, 402, 488, 496, 410
*ELEMENT, TYPE=C3D20R, ELSET=E46
46, 403, 489, 497, 411, 405, 491, 499, 413, 455, 493, 460, 407, 
456, 494, 461, 408, 404, 490, 498, 412
*ELEMENT, TYPE=C3D20R, ELSET=E47
47, 409, 495, 503, 417, 411, 497, 505, 419, 459, 500, 464, 414, 
460, 501, 465, 415, 410, 496, 504, 418
*ELEMENT, TYPE=C3D20R, ELSET=E48
48, 411, 497, 505, 419, 413, 499, 507, 421, 460, 501, 465, 415, 
461, 502, 466, 416, 412, 498, 506, 420
*ELEMENT, TYPE=C3D20R, ELSET=E49
49, 417, 503, 511, 425, 419, 505, 513, 427, 464, 508, 469, 422, 
465, 509, 470, 423, 418, 504, 512, 426
*ELEMENT, TYPE=C3D20R, ELSET=E50
50, 419, 505, 513, 427, 421, 507, 515, 429, 465, 509, 470, 423, 
466, 510, 471, 424, 420, 506, 514, 428
*ELEMENT, TYPE=C3D20R, ELSET=E51
51, 425, 511, 519, 433, 427, 513, 521, 435, 469, 516, 474, 430, 
470, 517, 475, 431, 426, 512, 520, 434
*ELEMENT, TYPE=C3D20R, ELSET=E52
52, 427, 513, 521, 435, 429, 515, 523, 437, 470, 517, 475, 431, 
471, 518, 476, 432, 428, 514, 522, 436
** ... 12 like lines cut
** <END> ~-~~-~~-~~-~~-~ EC_MESH ELEMENTS
*ELSET, ELSET=EALL
1, 2, 3, 4, 5, 6, 7, 8, 9, 10, 11, 12, 13
14, 15, 16, 17, 18, 19, 20, 21, 22, 23, 24, 25, 26
27, 28, 29, 30, 31, 32, 33, 34, 35, 36, 37, 38, 39
40, 41, 42, 43, 44, 45, 46, 47, 48, 49, 50, 51, 52
53, 54, 55, 56
********************************************************************************
*MATERIAL, NAME=Alloy_713LC_E1
**  ELSET VOL FRAC = 1.0
*DENSITY
0.000748533, -1.0
0.000748533, 1.0
*ELASTIC, TYPE=ENGINEERING CONSTANTS
28873091.7796, 28873091.7796, 28873091.7796, 0.3, 0.3, 0.3, 11105035.2998, 11105035.2998
11105035.2998, -1.0
28865399.0534, 28865399.0534, 28865399.0534, 0.3, 0.3, 0.3, 11102076.559, 11102076.559
11102076.559, 1.0
*EXPANSION, TYPE=ORTHO, ZERO=0.0
5.6e-06, 5.6e-06, 5.6e-06, -1.0
5.6e-06, 5.6e-06, 5.6e-06, 1.0
*SOLID SECTION, ELSET=E1, MATERIAL=Alloy_713LC_E1
*MATERIAL, NAME=Alloy_713LC_E2
**  ELSET VOL FRAC = 1.0
*DENSITY
0.000748533, -1.0
0.000748533, 1.0
*ELASTIC, TYPE=ENGINEERING CONSTANTS
28873091.7796, 28873091.7796, 28873091.7796, 0.3, 0.3, 0.3, 11105035.2998, 11105035.2998
11105035.2998, -1.0
28865399.0534, 28865399.0534, 28865399.0534, 0.3, 0.3, 0.3, 11102076.559, 11102076.559
11102076.559, 1.0
*EXPANSION, TYPE=ORTHO, ZERO=0.0
5.6e-06, 5.6e-06, 5.6e-06, -1.0
5.6e-06, 5.6e-06, 5.6e-06, 1.0
*SOLID SECTION, ELSET=E2, MATERIAL=Alloy_713LC_E2
*MATERIAL, NAME=Alloy_713LC_E3
**  ELSET VOL FRAC = 1.0
*DENSITY
0.000748533, -1.0
0.000748533, 1.0
*ELASTIC, TYPE=ENGINEERING CONSTANTS
28873091.7796, 28873091.7796, 28873091.7796, 0.3, 0.3, 0.3, 11105035.2998, 11105035.2998
11105035.2998, -1.0
28865399.0534, 28865399.0534, 28865399.0534, 0.3, 0.3, 0.3, 11102076.559, 11102076.559
11102076.559, 1.0
*EXPANSION, TYPE=ORTHO, ZERO=0.0
5.6e-06, 5.6e-06, 5.6e-06, -1.0
5.6e-06, 5.6e-06, 5.6e-06, 1.0
*SOLID SECTION, ELSET=E3, MATERIAL=Alloy_713LC_E3
*MATERIAL, NAME=Alloy_713LC_E4
**  ELSET VOL FRAC = 1.0
*DENSITY
0.000748533, -1.0
0.000748533, 1.0
*ELASTIC, TYPE=ENGINEERING CONSTANTS
28873091.7796, 28873091.7796, 28873091.7796, 0.3, 0.3, 0.3, 11105035.2998, 11105035.2998
11105035.2998, -1.0
28865399.0534, 28865399.0534, 28865399.0534, 0.3, 0.3, 0.3, 11102076.559, 11102076.559
11102076.559, 1.0
*EXPANSION, TYPE=ORTHO, ZERO=0.0
5.6e-06, 5.6e-06, 5.6e-06, -1.0
5.6e-06, 5.6e-06, 5.6e-06, 1.0
*SOLID SECTION, ELSET=E4, MATERIAL=Alloy_713LC_E4
*MATERIAL, NAME=Alloy_713LC_E5
**  ELSET VOL FRAC = 1.0
*DENSITY
0.000748533, -1.0
0.000748533, 1.0
*ELASTIC, TYPE=ENGINEERING CONSTANTS
28873091.7796, 28873091.7796, 28873091.7796, 0.3, 0.3, 0.3, 11105035.2998, 11105035.2998
11105035.2998, -1.0
28865399.0534, 28865399.0534, 28865399.0534, 0.3, 0.3, 0.3, 11102076.559, 11102076.559
11102076.559, 1.0
*EXPANSION, TYPE=ORTHO, ZERO=0.0
5.6e-06, 5.6e-06, 5.6e-06, -1.0
5.6e-06, 5.6e-06, 5.6e-06, 1.0
*SOLID SECTION, ELSET=E5, MATERIAL=Alloy_713LC_E5
*MATERIAL, NAME=Alloy_713LC_E6
**  ELSET VOL FRAC = 1.0
*DENSITY
0.000748533, -1.0
0.000748533, 1.0
*ELASTIC, TYPE=ENGINEERING CONSTANTS
28873091.7796, 28873091.7796, 28873091.7796, 0.3, 0.3, 0.3, 11105035.2998, 11105035.2998
11105035.2998, -1.0
28865399.0534, 28865399.0534, 28865399.0534, 0.3, 0.3, 0.3, 11102076.559, 11102076.559
11102076.559, 1.0
*EXPANSION, TYPE=ORTHO, ZERO=0.0
5.6e-06, 5.6e-06, 5.6e-06, -1.0
5.6e-06, 5.6e-06, 5.6e-06, 1.0
*SOLID SECTION, ELSET=E6, MATERIAL=Alloy_713LC_E6
*MATERIAL, NAME=Alloy_713LC_E7
**  ELSET VOL FRAC = 1.0
*DENSITY
0.000748533, -1.0
0.000748533, 1.0
*ELASTIC, TYPE=ENGINEERING CONSTANTS
28873091.7796, 28873091.7796, 28873091.7796, 0.3, 0.3, 0.3, 11105035.2998, 11105035.2998
11105035.2998, -1.0
28865399.0534, 28865399.0534, 28865399.0534, 0.3, 0.3, 0.3, 11102076.559, 11102076.559
11102076.559, 1.0
*EXPANSION, TYPE=ORTHO, ZERO=0.0
5.6e-06, 5.6e-06, 5.6e-06, -1.0
5.6e-06, 5.6e-06, 5.6e-06, 1.0
*SOLID SECTION, ELSET=E7, MATERIAL=Alloy_713LC_E7
*MATERIAL, NAME=Alloy_713LC_E8
**  ELSET VOL FRAC = 1.0
*DENSITY
0.000748533, -1.0
0.000748533, 1.0
*ELASTIC, TYPE=ENGINEERING CONSTANTS
28873091.7796, 28873091.7796, 28873091.7796, 0.3, 0.3, 0.3, 11105035.2998, 11105035.2998
11105035.2998, -1.0
28865399.0534, 28865399.0534, 28865399.0534, 0.3, 0.3, 0.3, 11102076.559, 11102076.559
11102076.559, 1.0
*EXPANSION, TYPE=ORTHO, ZERO=0.0
5.6e-06, 5.6e-06, 5.6e-06, -1.0
5.6e-06, 5.6e-06, 5.6e-06, 1.0
*SOLID SECTION, ELSET=E8, MATERIAL=Alloy_713LC_E8
*MATERIAL, NAME=Alloy_713LC_E9
**  ELSET VOL FRAC = 1.0
*DENSITY
0.000748533, -1.0
0.000748533, 1.0
*ELASTIC, TYPE=ENGINEERING CONSTANTS
28873091.7796, 28873091.7796, 28873091.7796, 0.3, 0.3, 0.3, 11105035.2998, 11105035.2998
11105035.2998, -1.0
28865399.0534, 28865399.0534, 28865399.0534, 0.3, 0.3, 0.3, 11102076.559, 11102076.559
11102076.559, 1.0
*EXPANSION, TYPE=ORTHO, ZERO=0.0
5.6e-06, 5.6e-06, 5.6e-06, -1.0
5.6e-06, 5.6e-06, 5.6e-06, 1.0
*SOLID SECTION, ELSET=E9, MATERIAL=Alloy_713LC_E9
*MATERIAL, NAME=Alloy_713LC_E10
**  ELSET VOL FRAC = 1.0
*DENSITY
0.000748533, -1.0
0.000748533, 1.0
*ELASTIC, TYPE=ENGINEERING CONSTANTS
28873091.7796, 28873091.7796, 28873091.7796, 0.3, 0.3, 0.3, 11105035.2998, 11105035.2998
11105035.2998, -1.0
28865399.0534, 28865399.0534, 28865399.0534, 0.3, 0.3, 0.3, 11102076.559, 11102076.559
11102076.559, 1.0
*EXPANSION, TYPE=ORTHO, ZERO=0.0
5.6e-06, 5.6e-06, 5.6e-06, -1.0
5.6e-06, 5.6e-06, 5.6e-06, 1.0
*SOLID SECTION, ELSET=E10, MATERIAL=Alloy_713LC_E10
*MATERIAL, NAME=Alloy_713LC_E11
**  ELSET VOL FRAC = 1.0
*DENSITY
0.000748533, -1.0
0.000748533, 1.0
*ELASTIC, TYPE=ENGINEERING CONSTANTS
28873091.7796, 28873091.7796, 28873091.7796, 0.3, 0.3, 0.3, 11105035.2998, 11105035.2998
11105035.2998, -1.0
28865399.0534, 28865399.0534, 28865399.0534, 0.3, 0.3, 0.3, 11102076.559, 11102076.559
11102076.559, 1.0
*EXPANSION, TYPE=ORTHO, ZERO=0.0
5.6e-06, 5.6e-06, 5.6e-06, -1.0
5.6e-06, 5.6e-06, 5.6e-06, 1.0
*SOLID SECTION, ELSET=E11, MATERIAL=Alloy_713LC_E11
*MATERIAL, NAME=Alloy_713LC_E12
**  ELSET VOL FRAC = 1.0
*DENSITY
0.000748533, -1.0
0.000748533, 1.0
*ELASTIC, TYPE=ENGINEERING CONSTANTS
28873091.7796, 28873091.7796, 28873091.7796, 0.3, 0.3, 0.3, 11105035.2998, 11105035.2998
11105035.2998, -1.0
28865399.0534, 28865399.0534, 28865399.0534, 0.3, 0.3, 0.3, 11102076.559, 11102076.559
11102076.559, 1.0
*EXPANSION, TYPE=ORTHO, ZERO=0.0
5.6e-06, 5.6e-06, 5.6e-06, -1.0
5.6e-06, 5.6e-06, 5.6e-06, 1.0
*SOLID SECTION, ELSET=E12, MATERIAL=Alloy_713LC_E12
*MATERIAL, NAME=Alloy_713LC_E13
**  ELSET VOL FRAC = 1.0
*DENSITY
0.000748533, -1.0
0.000748533, 1.0
*ELASTIC, TYPE=ENGINEERING CONSTANTS
28873091.7796, 28873091.7796, 28873091.7796, 0.3, 0.3, 0.3, 11105035.2998, 11105035.2998
11105035.2998, -1.0
28865399.0534, 28865399.0534, 28865399.0534, 0.3, 0.3, 0.3, 11102076.559, 11102076.559
11102076.559, 1.0
*EXPANSION, TYPE=ORTHO, ZERO=0.0
5.6e-06, 5.6e-06, 5.6e-06, -1.0
5.6e-06, 5.6e-06, 5.6e-06, 1.0
*SOLID SECTION, ELSET=E13, MATERIAL=Alloy_713LC_E13
*MATERIAL, NAME=Alloy_713LC_E14
**  ELSET VOL FRAC = 1.0
*DENSITY
0.000748533, -1.0
0.000748533, 1.0
*ELASTIC, TYPE=ENGINEERING CONSTANTS
28873091.7796, 28873091.7796, 28873091.7796, 0.3, 0.3, 0.3, 11105035.2998, 11105035.2998
11105035.2998, -1.0
28865399.0534, 28865399.0534, 28865399.0534, 0.3, 0.3, 0.3, 11102076.559, 11102076.559
11102076.559, 1.0
*EXPANSION, TYPE=ORTHO, ZERO=0.0
5.6e-06, 5.6e-06, 5.6e-06, -1.0
5.6e-06, 5.6e-06, 5.6e-06, 1.0
*SOLID SECTION, ELSET=E14, MATERIAL=Alloy_713LC_E14
*MATERIAL, NAME=Alloy_713LC_E15
**  ELSET VOL FRAC = 1.0
*DENSITY
0.000748533, -1.0
0.000748533, 1.0
*ELASTIC, TYPE=ENGINEERING CONSTANTS
28873091.7796, 28873091.7796, 28873091.7796, 0.3, 0.3, 0.3, 11105035.2998, 11105035.2998
11105035.2998, -1.0
28865399.0534, 28865399.0534, 28865399.0534, 0.3, 0.3, 0.3, 11102076.559, 11102076.559
11102076.559, 1.0
*EXPANSION, TYPE=ORTHO, ZERO=0.0
5.6e-06, 5.6e-06, 5.6e-06, -1.0
5.6e-06, 5.6e-06, 5.6e-06, 1.0
*SOLID SECTION, ELSET=E15, MATERIAL=Alloy_713LC_E15
*MATERIAL, NAME=Alloy_713LC_E16
**  ELSET VOL FRAC = 1.0
*DENSITY
0.000748533, -1.0
0.000748533, 1.0
*ELASTIC, TYPE=ENGINEERING CONSTANTS
28873091.7796, 28873091.7796, 28873091.7796, 0.3, 0.3, 0.3, 11105035.2998, 11105035.2998
11105035.2998, -1.0
28865399.0534, 28865399.0534, 28865399.0534, 0.3, 0.3, 0.3, 11102076.559, 11102076.559
11102076.559, 1.0
*EXPANSION, TYPE=ORTHO, ZERO=0.0
5.6e-06, 5.6e-06, 5.6e-06, -1.0
5.6e-06, 5.6e-06, 5.6e-06, 1.0
*SOLID SECTION, ELSET=E16, MATERIAL=Alloy_713LC_E16
********************************************************************************
*MATERIAL, NAME=Alloy_713LC_E17
**  ELSET VOL FRAC = 1.0
*DENSITY
0.000748533, -1.0
0.000748533, 1.0
*ELASTIC, TYPE=ENGINEERING CONSTANTS
28873091.7796, 28873091.7796, 28873091.7796, 0.3, 0.3, 0.3, 11105035.2998, 11105035.2998
11105035.2998, -1.0
28865399.0534, 28865399.0534, 28865399.0534, 0.3, 0.3, 0.3, 11102076.559, 11102076.559
11102076.559, 1.0
*EXPANSION, TYPE=ORTHO, ZERO=0.0
5.6e-06, 5.6e-06, 5.6e-06, -1.0
5.6e-06, 5.6e-06, 5.6e-06, 1.0
*SOLID SECTION, ELSET=E17, MATERIAL=Alloy_713LC_E17
*MATERIAL, NAME=Alloy_713LC_E18
**  ELSET VOL FRAC = 1.0
*DENSITY
0.000748533, -1.0
0.000748533, 1.0
*ELASTIC, TYPE=ENGINEERING CONSTANTS
28873091.7796, 28873091.7796, 28873091.7796, 0.3, 0.3, 0.3, 11105035.2998, 11105035.2998
11105035.2998, -1.0
28865399.0534, 28865399.0534, 28865399.0534, 0.3, 0.3, 0.3, 11102076.559, 11102076.559
11102076.559, 1.0
*EXPANSION, TYPE=ORTHO, ZERO=0.0
5.6e-06, 5.6e-06, 5.6e-06, -1.0
5.6e-06, 5.6e-06, 5.6e-06, 1.0
*SOLID SECTION, ELSET=E18, MATERIAL=Alloy_713LC_E18
*MATERIAL, NAME=Alloy_713LC_E19
**  ELSET VOL FRAC = 1.0
*DENSITY
0.000748533, -1.0
0.000748533, 1.0
*ELASTIC, TYPE=ENGINEERING CONSTANTS
28873091.7796, 28873091.7796, 28873091.7796, 0.3, 0.3, 0.3, 11105035.2998, 11105035.2998
11105035.2998, -1.0
28865399.0534, 28865399.0534, 28865399.0534, 0.3, 0.3, 0.3, 11102076.559, 11102076.559
11102076.559, 1.0
*EXPANSION, TYPE=ORTHO, ZERO=0.0
5.6e-06, 5.6e-06, 5.6e-06, -1.0
5.6e-06, 5.6e-06, 5.6e-06, 1.0
*SOLID SECTION, ELSET=E19, MATERIAL=Alloy_713LC_E19
*MATERIAL, NAME=Alloy_713LC_E20
**  ELSET VOL FRAC = 1.0
*DENSITY
0.000748533, -1.0
0.000748533, 1.0
*ELASTIC, TYPE=ENGINEERING CONSTANTS
28873091.7796, 28873091.7796, 28873091.7796, 0.3, 0.3, 0.3, 11105035.2998, 11105035.2998
11105035.2998, -1.0
28865399.0534, 28865399.0534, 28865399.0534, 0.3, 0.3, 0.3, 11102076.559, 11102076.559
11102076.559, 1.0
*EXPANSION, TYPE=ORTHO, ZERO=0.0
5.6e-06, 5.6e-06, 5.6e-06, -1.0
5.6e-06, 5.6e-06, 5.6e-06, 1.0
*SOLID SECTION, ELSET=E20, MATERIAL=Alloy_713LC_E20
*MATERIAL, NAME=Alloy_713LC_E21
**  ELSET VOL FRAC = 1.0
*DENSITY
0.000748533, -1.0
0.000748533, 1.0
*ELASTIC, TYPE=ENGINEERING CONSTANTS
28873091.7796, 28873091.7796, 28873091.7796, 0.3, 0.3, 0.3, 11105035.2998, 11105035.2998
11105035.2998, -1.0
28865399.0534, 28865399.0534, 28865399.0534, 0.3, 0.3, 0.3, 11102076.559, 11102076.559
11102076.559, 1.0
*EXPANSION, TYPE=ORTHO, ZERO=0.0
5.6e-06, 5.6e-06, 5.6e-06, -1.0
5.6e-06, 5.6e-06, 5.6e-06, 1.0
*SOLID SECTION, ELSET=E21, MATERIAL=Alloy_713LC_E21
*MATERIAL, NAME=Alloy_713LC_E22
**  ELSET VOL FRAC = 1.0
*DENSITY
0.000748533, -1.0
0.000748533, 1.0
*ELASTIC, TYPE=ENGINEERING CONSTANTS
28873091.7796, 28873091.7796, 28873091.7796, 0.3, 0.3, 0.3, 11105035.2998, 11105035.2998
11105035.2998, -1.0
28865399.0534, 28865399.0534, 28865399.0534, 0.3, 0.3, 0.3, 11102076.559, 11102076.559
11102076.559, 1.0
*EXPANSION, TYPE=ORTHO, ZERO=0.0
5.6e-06, 5.6e-06, 5.6e-06, -1.0
5.6e-06, 5.6e-06, 5.6e-06, 1.0
*SOLID SECTION, ELSET=E22, MATERIAL=Alloy_713LC_E22
*MATERIAL, NAME=Alloy_713LC_E23
**  ELSET VOL FRAC = 1.0
*DENSITY
0.000748533, -1.0
0.000748533, 1.0
*ELASTIC, TYPE=ENGINEERING CONSTANTS
28873091.7796, 28873091.7796, 28873091.7796, 0.3, 0.3, 0.3, 11105035.2998, 11105035.2998
11105035.2998, -1.0
28865399.0534, 28865399.0534, 28865399.0534, 0.3, 0.3, 0.3, 11102076.559, 11102076.559
11102076.559, 1.0
*EXPANSION, TYPE=ORTHO, ZERO=0.0
5.6e-06, 5.6e-06, 5.6e-06, -1.0
5.6e-06, 5.6e-06, 5.6e-06, 1.0
*SOLID SECTION, ELSET=E23, MATERIAL=Alloy_713LC_E23
*MATERIAL, NAME=Alloy_713LC_E24
**  ELSET VOL FRAC = 1.0
*DENSITY
0.000748533, -1.0
0.000748533, 1.0
*ELASTIC, TYPE=ENGINEERING CONSTANTS
28873091.7796, 28873091.7796, 28873091.7796, 0.3, 0.3, 0.3, 11105035.2998, 11105035.2998
11105035.2998, -1.0
28865399.0534, 28865399.0534, 28865399.0534, 0.3, 0.3, 0.3, 11102076.559, 11102076.559
11102076.559, 1.0
*EXPANSION, TYPE=ORTHO, ZERO=0.0
5.6e-06, 5.6e-06, 5.6e-06, -1.0
5.6e-06, 5.6e-06, 5.6e-06, 1.0
*SOLID SECTION, ELSET=E24, MATERIAL=Alloy_713LC_E24
*MATERIAL, NAME=Alloy_713LC_E25
**  ELSET VOL FRAC = 1.0
*DENSITY
0.000748533, -1.0
0.000748533, 1.0
*ELASTIC, TYPE=ENGINEERING CONSTANTS
28873091.7796, 28873091.7796, 28873091.7796, 0.3, 0.3, 0.3, 11105035.2998, 11105035.2998
11105035.2998, -1.0
28865399.0534, 28865399.0534, 28865399.0534, 0.3, 0.3, 0.3, 11102076.559, 11102076.559
11102076.559, 1.0
*EXPANSION, TYPE=ORTHO, ZERO=0.0
5.6e-06, 5.6e-06, 5.6e-06, -1.0
5.6e-06, 5.6e-06, 5.6e-06, 1.0
*SOLID SECTION, ELSET=E25, MATERIAL=Alloy_713LC_E25
*MATERIAL, NAME=Alloy_713LC_E26
**  ELSET VOL FRAC = 1.0
*DENSITY
0.000748533, -1.0
0.000748533, 1.0
*ELASTIC, TYPE=ENGINEERING CONSTANTS
28873091.7796, 28873091.7796, 28873091.7796, 0.3, 0.3, 0.3, 11105035.2998, 11105035.2998
11105035.2998, -1.0
28865399.0534, 28865399.0534, 28865399.0534, 0.3, 0.3, 0.3, 11102076.559, 11102076.559
11102076.559, 1.0
*EXPANSION, TYPE=ORTHO, ZERO=0.0
5.6e-06, 5.6e-06, 5.6e-06, -1.0
5.6e-06, 5.6e-06, 5.6e-06, 1.0
*SOLID SECTION, ELSET=E26, MATERIAL=Alloy_713LC_E26
*MATERIAL, NAME=Alloy_713LC_E27
**  ELSET VOL FRAC = 1.0
*DENSITY
0.000748533, -1.0
0.000748533, 1.0
*ELASTIC, TYPE=ENGINEERING CONSTANTS
28873091.7796, 28873091.7796, 28873091.7796, 0.3, 0.3, 0.3, 11105035.2998, 11105035.2998
11105035.2998, -1.0
28865399.0534, 28865399.0534, 28865399.0534, 0.3, 0.3, 0.3, 11102076.559, 11102076.559
11102076.559, 1.0
*EXPANSION, TYPE=ORTHO, ZERO=0.0
5.6e-06, 5.6e-06, 5.6e-06, -1.0
5.6e-06, 5.6e-06, 5.6e-06, 1.0
*SOLID SECTION, ELSET=E27, MATERIAL=Alloy_713LC_E27
*MATERIAL, NAME=Alloy_713LC_E28
**  ELSET VOL FRAC = 1.0
*DENSITY
0.000748533, -1.0
0.000748533, 1.0
*ELASTIC, TYPE=ENGINEERING CONSTANTS
28873091.7796, 28873091.7796, 28873091.7796, 0.3, 0.3, 0.3, 11105035.2998, 11105035.2998
11105035.2998, -1.0
28865399.0534, 28865399.0534, 28865399.0534, 0.3, 0.3, 0.3, 11102076.559, 11102076.559
11102076.559, 1.0
*EXPANSION, TYPE=ORTHO, ZERO=0.0
5.6e-06, 5.6e-06, 5.6e-06, -1.0
5.6e-06, 5.6e-06, 5.6e-06, 1.0
*SOLID SECTION, ELSET=E28, MATERIAL=Alloy_713LC_E28
*MATERIAL, NAME=Alloy_713LC_E29
**  ELSET VOL FRAC = 1.0
*DENSITY
0.000748533, -1.0
0.000748533, 1.0
*ELASTIC, TYPE=ENGINEERING CONSTANTS
28873091.7796, 28873091.7796, 28873091.7796, 0.3, 0.3, 0.3, 11105035.2998, 11105035.2998
11105035.2998, -1.0
28865399.0534, 28865399.0534, 28865399.0534, 0.3, 0.3, 0.3, 11102076.559, 11102076.559
11102076.559, 1.0
*EXPANSION, TYPE=ORTHO, ZERO=0.0
5.6e-06, 5.6e-06, 5.6e-06, -1.0
5.6e-06, 5.6e-06, 5.6e-06, 1.0
*SOLID SECTION, ELSET=E29, MATERIAL=Alloy_713LC_E29
*MATERIAL, NAME=Alloy_713LC_E30
**  ELSET VOL FRAC = 1.0
*DENSITY
0.000748533, -1.0
0.000748533, 1.0
*ELASTIC, TYPE=ENGINEERING CONSTANTS
28873091.7796, 28873091.7796, 28873091.7796, 0.3, 0.3, 0.3, 11105035.2998, 11105035.2998
11105035.2998, -1.0
28865399.0534, 28865399.0534, 28865399.0534, 0.3, 0.3, 0.3, 11102076.559, 11102076.559
11102076.559, 1.0
*EXPANSION, TYPE=ORTHO, ZERO=0.0
5.6e-06, 5.6e-06, 5.6e-06, -1.0
5.6e-06, 5.6e-06, 5.6e-06, 1.0
*SOLID SECTION, ELSET=E30, MATERIAL=Alloy_713LC_E30
*MATERIAL, NAME=Alloy_713LC_E31
**  ELSET VOL FRAC = 1.0
*DENSITY
0.000748533, -1.0
0.000748533, 1.0
*ELASTIC, TYPE=ENGINEERING CONSTANTS
28873091.7796, 28873091.7796, 28873091.7796, 0.3, 0.3, 0.3, 11105035.2998, 11105035.2998
11105035.2998, -1.0
28865399.0534, 28865399.0534, 28865399.0534, 0.3, 0.3, 0.3, 11102076.559, 11102076.559
11102076.559, 1.0
*EXPANSION, TYPE=ORTHO, ZERO=0.0
5.6e-06, 5.6e-06, 5.6e-06, -1.0
5.6e-06, 5.6e-06, 5.6e-06, 1.0
*SOLID SECTION, ELSET=E31, MATERIAL=Alloy_713LC_E31
*MATERIAL, NAME=Alloy_713LC_E32
**  ELSET VOL FRAC = 1.0
*DENSITY
0.000748533, -1.0
0.000748533, 1.0
*ELASTIC, TYPE=ENGINEERING CONSTANTS
28873091.7796, 28873091.7796, 28873091.7796, 0.3, 0.3, 0.3, 11105035.2998, 11105035.2998
11105035.2998, -1.0
28865399.0534, 28865399.0534, 28865399.0534, 0.3, 0.3, 0.3, 11102076.559, 11102076.559
11102076.559, 1.0
*EXPANSION, TYPE=ORTHO, ZERO=0.0
5.6e-06, 5.6e-06, 5.6e-06, -1.0
5.6e-06, 5.6e-06, 5.6e-06, 1.0
*SOLID SECTION, ELSET=E32, MATERIAL=Alloy_713LC_E32
********************************************************************************
*MATERIAL, NAME=Alloy_713LC_E33
**  ELSET VOL FRAC = 0.9
*DENSITY
0.0006736797, -1.0
0.0006736797, 1.0
*ELASTIC, TYPE=ENGINEERING CONSTANTS
25985782.6016, 25985782.6016, 25985782.6016, 0.3, 0.3, 0.3, 9994531.76985, 9994531.76985
9994531.76985, -1.0
25978859.148, 25978859.148, 25978859.148, 0.3, 0.3, 0.3, 9991868.90309, 9991868.90309
9991868.90309, 1.0
*EXPANSION, TYPE=ORTHO, ZERO=0.0
5.6e-06, 5.6e-06, 5.6e-06, -1.0
5.6e-06, 5.6e-06, 5.6e-06, 1.0
*SOLID SECTION, ELSET=E33, MATERIAL=Alloy_713LC_E33
*MATERIAL, NAME=Alloy_713LC_E34
**  ELSET VOL FRAC = 0.9
*DENSITY
0.0006736797, -1.0
0.0006736797, 1.0
*ELASTIC, TYPE=ENGINEERING CONSTANTS
25985782.6016, 25985782.6016, 25985782.6016, 0.3, 0.3, 0.3, 9994531.76985, 9994531.76985
9994531.76985, -1.0
25978859.148, 25978859.148, 25978859.148, 0.3, 0.3, 0.3, 9991868.90309, 9991868.90309
9991868.90309, 1.0
*EXPANSION, TYPE=ORTHO, ZERO=0.0
5.6e-06, 5.6e-06, 5.6e-06, -1.0
5.6e-06, 5.6e-06, 5.6e-06, 1.0
*SOLID SECTION, ELSET=E34, MATERIAL=Alloy_713LC_E34
*MATERIAL, NAME=Alloy_713LC_E35
**  ELSET VOL FRAC = 0.9
*DENSITY
0.0006736797, -1.0
0.0006736797, 1.0
*ELASTIC, TYPE=ENGINEERING CONSTANTS
25985782.6016, 25985782.6016, 25985782.6016, 0.3, 0.3, 0.3, 9994531.76985, 9994531.76985
9994531.76985, -1.0
25978859.148, 25978859.148, 25978859.148, 0.3, 0.3, 0.3, 9991868.90309, 9991868.90309
9991868.90309, 1.0
*EXPANSION, TYPE=ORTHO, ZERO=0.0
5.6e-06, 5.6e-06, 5.6e-06, -1.0
5.6e-06, 5.6e-06, 5.6e-06, 1.0
*SOLID SECTION, ELSET=E35, MATERIAL=Alloy_713LC_E35
*MATERIAL, NAME=Alloy_713LC_E36
**  ELSET VOL FRAC = 0.9
*DENSITY
0.0006736797, -1.0
0.0006736797, 1.0
*ELASTIC, TYPE=ENGINEERING CONSTANTS
25985782.6016, 25985782.6016, 25985782.6016, 0.3, 0.3, 0.3, 9994531.76985, 9994531.76985
9994531.76985, -1.0
25978859.148, 25978859.148, 25978859.148, 0.3, 0.3, 0.3, 9991868.90309, 9991868.90309
9991868.90309, 1.0
*EXPANSION, TYPE=ORTHO, ZERO=0.0
5.6e-06, 5.6e-06, 5.6e-06, -1.0
5.6e-06, 5.6e-06, 5.6e-06, 1.0
*SOLID SECTION, ELSET=E36, MATERIAL=Alloy_713LC_E36
*MATERIAL, NAME=Alloy_713LC_E37
**  ELSET VOL FRAC = 0.9
*DENSITY
0.0006736797, -1.0
0.0006736797, 1.0
*ELASTIC, TYPE=ENGINEERING CONSTANTS
25985782.6016, 25985782.6016, 25985782.6016, 0.3, 0.3, 0.3, 9994531.76985, 9994531.76985
9994531.76985, -1.0
25978859.148, 25978859.148, 25978859.148, 0.3, 0.3, 0.3, 9991868.90309, 9991868.90309
9991868.90309, 1.0
*EXPANSION, TYPE=ORTHO, ZERO=0.0
5.6e-06, 5.6e-06, 5.6e-06, -1.0
5.6e-06, 5.6e-06, 5.6e-06, 1.0
*SOLID SECTION, ELSET=E37, MATERIAL=Alloy_713LC_E37
*MATERIAL, NAME=Alloy_713LC_E38
**  ELSET VOL FRAC = 0.9
*DENSITY
0.0006736797, -1.0
0.0006736797, 1.0
*ELASTIC, TYPE=ENGINEERING CONSTANTS
25985782.6016, 25985782.6016, 25985782.6016, 0.3, 0.3, 0.3, 9994531.76985, 9994531.76985
9994531.76985, -1.0
25978859.148, 25978859.148, 25978859.148, 0.3, 0.3, 0.3, 9991868.90309, 9991868.90309
9991868.90309, 1.0
*EXPANSION, TYPE=ORTHO, ZERO=0.0
5.6e-06, 5.6e-06, 5.6e-06, -1.0
5.6e-06, 5.6e-06, 5.6e-06, 1.0
*SOLID SECTION, ELSET=E38, MATERIAL=Alloy_713LC_E38
*MATERIAL, NAME=Alloy_713LC_E39
**  ELSET VOL FRAC = 0.9
*DENSITY
0.0006736797, -1.0
0.0006736797, 1.0
*ELASTIC, TYPE=ENGINEERING CONSTANTS
25985782.6016, 25985782.6016, 25985782.6016, 0.3, 0.3, 0.3, 9994531.76985, 9994531.76985
9994531.76985, -1.0
25978859.148, 25978859.148, 25978859.148, 0.3, 0.3, 0.3, 9991868.90309, 9991868.90309
9991868.90309, 1.0
*EXPANSION, TYPE=ORTHO, ZERO=0.0
5.6e-06, 5.6e-06, 5.6e-06, -1.0
5.6e-06, 5.6e-06, 5.6e-06, 1.0
*SOLID SECTION, ELSET=E39, MATERIAL=Alloy_713LC_E39
*MATERIAL, NAME=Alloy_713LC_E40
**  ELSET VOL FRAC = 0.9
*DENSITY
0.0006736797, -1.0
0.0006736797, 1.0
*ELASTIC, TYPE=ENGINEERING CONSTANTS
25985782.6016, 25985782.6016, 25985782.6016, 0.3, 0.3, 0.3, 9994531.76985, 9994531.76985
9994531.76985, -1.0
25978859.148, 25978859.148, 25978859.148, 0.3, 0.3, 0.3, 9991868.90309, 9991868.90309
9991868.90309, 1.0
*EXPANSION, TYPE=ORTHO, ZERO=0.0
5.6e-06, 5.6e-06, 5.6e-06, -1.0
5.6e-06, 5.6e-06, 5.6e-06, 1.0
*SOLID SECTION, ELSET=E40, MATERIAL=Alloy_713LC_E40
*MATERIAL, NAME=Alloy_713LC_E41
**  ELSET VOL FRAC = 0.9
*DENSITY
0.0006736797, -1.0
0.0006736797, 1.0
*ELASTIC, TYPE=ENGINEERING CONSTANTS
25985782.6016, 25985782.6016, 25985782.6016, 0.3, 0.3, 0.3, 9994531.76985, 9994531.76985
9994531.76985, -1.0
25978859.148, 25978859.148, 25978859.148, 0.3, 0.3, 0.3, 9991868.90309, 9991868.90309
9991868.90309, 1.0
*EXPANSION, TYPE=ORTHO, ZERO=0.0
5.6e-06, 5.6e-06, 5.6e-06, -1.0
5.6e-06, 5.6e-06, 5.6e-06, 1.0
*SOLID SECTION, ELSET=E41, MATERIAL=Alloy_713LC_E41
*MATERIAL, NAME=Alloy_713LC_E42
**  ELSET VOL FRAC = 0.9
*DENSITY
0.0006736797, -1.0
0.0006736797, 1.0
*ELASTIC, TYPE=ENGINEERING CONSTANTS
25985782.6016, 25985782.6016, 25985782.6016, 0.3, 0.3, 0.3, 9994531.76985, 9994531.76985
9994531.76985, -1.0
25978859.148, 25978859.148, 25978859.148, 0.3, 0.3, 0.3, 9991868.90309, 9991868.90309
9991868.90309, 1.0
*EXPANSION, TYPE=ORTHO, ZERO=0.0
5.6e-06, 5.6e-06, 5.6e-06, -1.0
5.6e-06, 5.6e-06, 5.6e-06, 1.0
*SOLID SECTION, ELSET=E42, MATERIAL=Alloy_713LC_E42
*MATERIAL, NAME=Alloy_713LC_E43
**  ELSET VOL FRAC = 0.9
*DENSITY
0.0006736797, -1.0
0.0006736797, 1.0
*ELASTIC, TYPE=ENGINEERING CONSTANTS
25985782.6016, 25985782.6016, 25985782.6016, 0.3, 0.3, 0.3, 9994531.76985, 9994531.76985
9994531.76985, -1.0
25978859.148, 25978859.148, 25978859.148, 0.3, 0.3, 0.3, 9991868.90309, 9991868.90309
9991868.90309, 1.0
*EXPANSION, TYPE=ORTHO, ZERO=0.0
5.6e-06, 5.6e-06, 5.6e-06, -1.0
5.6e-06, 5.6e-06, 5.6e-06, 1.0
*SOLID SECTION, ELSET=E43, MATERIAL=Alloy_713LC_E43
*MATERIAL, NAME=Alloy_713LC_E44
**  ELSET VOL FRAC = 0.9
*DENSITY
0.0006736797, -1.0
0.0006736797, 1.0
*ELASTIC, TYPE=ENGINEERING CONSTANTS
25985782.6016, 25985782.6016, 25985782.6016, 0.3, 0.3, 0.3, 9994531.76985, 9994531.76985
9994531.76985, -1.0
25978859.148, 25978859.148, 25978859.148, 0.3, 0.3, 0.3, 9991868.90309, 9991868.90309
9991868.90309, 1.0
*EXPANSION, TYPE=ORTHO, ZERO=0.0
5.6e-06, 5.6e-06, 5.6e-06, -1.0
5.6e-06, 5.6e-06, 5.6e-06, 1.0
*SOLID SECTION, ELSET=E44, MATERIAL=Alloy_713LC_E44
*MATERIAL, NAME=Alloy_713LC_E45
**  ELSET VOL FRAC = 0.7
*DENSITY
0.0005239731, -1.0
0.0005239731, 1.0
*ELASTIC, TYPE=ENGINEERING CONSTANTS
20211164.2457, 20211164.2457, 20211164.2457, 0.3, 0.3, 0.3, 7773524.70988, 7773524.70988
7773524.70988, -1.0
20205779.3374, 20205779.3374, 20205779.3374, 0.3, 0.3, 0.3, 7771453.59129, 7771453.59129
7771453.59129, 1.0
*EXPANSION, TYPE=ORTHO, ZERO=0.0
5.6e-06, 5.6e-06, 5.6e-06, -1.0
5.6e-06, 5.6e-06, 5.6e-06, 1.0
*SOLID SECTION, ELSET=E45, MATERIAL=Alloy_713LC_E45
*MATERIAL, NAME=Alloy_713LC_E46
**  ELSET VOL FRAC = 0.7
*DENSITY
0.0005239731, -1.0
0.0005239731, 1.0
*ELASTIC, TYPE=ENGINEERING CONSTANTS
20211164.2457, 20211164.2457, 20211164.2457, 0.3, 0.3, 0.3, 7773524.70988, 7773524.70988
7773524.70988, -1.0
20205779.3374, 20205779.3374, 20205779.3374, 0.3, 0.3, 0.3, 7771453.59129, 7771453.59129
7771453.59129, 1.0
*EXPANSION, TYPE=ORTHO, ZERO=0.0
5.6e-06, 5.6e-06, 5.6e-06, -1.0
5.6e-06, 5.6e-06, 5.6e-06, 1.0
*SOLID SECTION, ELSET=E46, MATERIAL=Alloy_713LC_E46
*MATERIAL, NAME=Alloy_713LC_E47
**  ELSET VOL FRAC = 0.7
*DENSITY
0.0005239731, -1.0
0.0005239731, 1.0
*ELASTIC, TYPE=ENGINEERING CONSTANTS
20211164.2457, 20211164.2457, 20211164.2457, 0.3, 0.3, 0.3, 7773524.70988, 7773524.70988
7773524.70988, -1.0
20205779.3374, 20205779.3374, 20205779.3374, 0.3, 0.3, 0.3, 7771453.59129, 7771453.59129
7771453.59129, 1.0
*EXPANSION, TYPE=ORTHO, ZERO=0.0
5.6e-06, 5.6e-06, 5.6e-06, -1.0
5.6e-06, 5.6e-06, 5.6e-06, 1.0
*SOLID SECTION, ELSET=E47, MATERIAL=Alloy_713LC_E47
*MATERIAL, NAME=Alloy_713LC_E48
**  ELSET VOL FRAC = 0.7
*DENSITY
0.0005239731, -1.0
0.0005239731, 1.0
*ELASTIC, TYPE=ENGINEERING CONSTANTS
20211164.2457, 20211164.2457, 20211164.2457, 0.3, 0.3, 0.3, 7773524.70988, 7773524.70988
7773524.70988, -1.0
20205779.3374, 20205779.3374, 20205779.3374, 0.3, 0.3, 0.3, 7771453.59129, 7771453.59129
7771453.59129, 1.0
*EXPANSION, TYPE=ORTHO, ZERO=0.0
5.6e-06, 5.6e-06, 5.6e-06, -1.0
5.6e-06, 5.6e-06, 5.6e-06, 1.0
*SOLID SECTION, ELSET=E48, MATERIAL=Alloy_713LC_E48
*MATERIAL, NAME=Alloy_713LC_E49
**  ELSET VOL FRAC = 0.7
*DENSITY
0.0005239731, -1.0
0.0005239731, 1.0
*ELASTIC, TYPE=ENGINEERING CONSTANTS
20211164.2457, 20211164.2457, 20211164.2457, 0.3, 0.3, 0.3, 7773524.70988, 7773524.70988
7773524.70988, -1.0
20205779.3374, 20205779.3374, 20205779.3374, 0.3, 0.3, 0.3, 7771453.59129, 7771453.59129
7771453.59129, 1.0
*EXPANSION, TYPE=ORTHO, ZERO=0.0
5.6e-06, 5.6e-06, 5.6e-06, -1.0
5.6e-06, 5.6e-06, 5.6e-06, 1.0
*SOLID SECTION, ELSET=E49, MATERIAL=Alloy_713LC_E49
*MATERIAL, NAME=Alloy_713LC_E50
**  ELSET VOL FRAC = 0.7
*DENSITY
0.0005239731, -1.0
0.0005239731, 1.0
*ELASTIC, TYPE=ENGINEERING CONSTANTS
20211164.2457, 20211164.2457, 20211164.2457, 0.3, 0.3, 0.3, 7773524.70988, 7773524.70988
7773524.70988, -1.0
20205779.3374, 20205779.3374, 20205779.3374, 0.3, 0.3, 0.3, 7771453.59129, 7771453.59129
7771453.59129, 1.0
*EXPANSION, TYPE=ORTHO, ZERO=0.0
5.6e-06, 5.6e-06, 5.6e-06, -1.0
5.6e-06, 5.6e-06, 5.6e-06, 1.0
*SOLID SECTION, ELSET=E50, MATERIAL=Alloy_713LC_E50
*MATERIAL, NAME=Alloy_713LC_E51
**  ELSET VOL FRAC = 0.7
*DENSITY
0.0005239731, -1.0
0.0005239731, 1.0
*ELASTIC, TYPE=ENGINEERING CONSTANTS
20211164.2457, 20211164.2457, 20211164.2457, 0.3, 0.3, 0.3, 7773524.70988, 7773524.70988
7773524.70988, -1.0
20205779.3374, 20205779.3374, 20205779.3374, 0.3, 0.3, 0.3, 7771453.59129, 7771453.59129
7771453.59129, 1.0
*EXPANSION, TYPE=ORTHO, ZERO=0.0
5.6e-06, 5.6e-06, 5.6e-06, -1.0
5.6e-06, 5.6e-06, 5.6e-06, 1.0
*SOLID SECTION, ELSET=E51, MATERIAL=Alloy_713LC_E51
*MATERIAL, NAME=Alloy_713LC_E52
**  ELSET VOL FRAC = 0.7
*DENSITY
0.0005239731, -1.0
0.0005239731, 1.0
*ELASTIC, TYPE=ENGINEERING CONSTANTS
20211164.2457, 20211164.2457, 20211164.2457, 0.3, 0.3, 0.3, 7773524.70988, 7773524.70988
7773524.70988, -1.0
20205779.3374, 20205779.3374, 20205779.3374, 0.3, 0.3, 0.3, 7771453.59129, 7771453.59129
7771453.59129, 1.0
*EXPANSION, TYPE=ORTHO, ZERO=0.0
5.6e-06, 5.6e-06, 5.6e-06, -1.0
5.6e-06, 5.6e-06, 5.6e-06, 1.0
*SOLID SECTION, ELSET=E52, MATERIAL=Alloy_713LC_E52
*MATERIAL, NAME=Alloy_713LC_E53
**  ELSET VOL FRAC = 0.7
*DENSITY
0.0005239731, -1.0
0.0005239731, 1.0
*ELASTIC, TYPE=ENGINEERING CONSTANTS
20211164.2457, 20211164.2457, 20211164.2457, 0.3, 0.3, 0.3, 7773524.70988, 7773524.70988
7773524.70988, -1.0
20205779.3374, 20205779.3374, 20205779.3374, 0.3, 0.3, 0.3, 7771453.59129, 7771453.59129
7771453.59129, 1.0
*EXPANSION, TYPE=ORTHO, ZERO=0.0
5.6e-06, 5.6e-06, 5.6e-06, -1.0
5.6e-06, 5.6e-06, 5.6e-06, 1.0
*SOLID SECTION, ELSET=E53, MATERIAL=Alloy_713LC_E53
*MATERIAL, NAME=Alloy_713LC_E54
**  ELSET VOL FRAC = 0.7
*DENSITY
0.0005239731, -1.0
0.0005239731, 1.0
*ELASTIC, TYPE=ENGINEERING CONSTANTS
20211164.2457, 20211164.2457, 20211164.2457, 0.3, 0.3, 0.3, 7773524.70988, 7773524.70988
7773524.70988, -1.0
20205779.3374, 20205779.3374, 20205779.3374, 0.3, 0.3, 0.3, 7771453.59129, 7771453.59129
7771453.59129, 1.0
*EXPANSION, TYPE=ORTHO, ZERO=0.0
5.6e-06, 5.6e-06, 5.6e-06, -1.0
5.6e-06, 5.6e-06, 5.6e-06, 1.0
*SOLID SECTION, ELSET=E54, MATERIAL=Alloy_713LC_E54
*MATERIAL, NAME=Alloy_713LC_E55
**  ELSET VOL FRAC = 0.7
*DENSITY
0.0005239731, -1.0
0.0005239731, 1.0
*ELASTIC, TYPE=ENGINEERING CONSTANTS
20211164.2457, 20211164.2457, 20211164.2457, 0.3, 0.3, 0.3, 7773524.70988, 7773524.70988
7773524.70988, -1.0
20205779.3374, 20205779.3374, 20205779.3374, 0.3, 0.3, 0.3, 7771453.59129, 7771453.59129
7771453.59129, 1.0
*EXPANSION, TYPE=ORTHO, ZERO=0.0
5.6e-06, 5.6e-06, 5.6e-06, -1.0
5.6e-06, 5.6e-06, 5.6e-06, 1.0
*SOLID SECTION, ELSET=E55, MATERIAL=Alloy_713LC_E55
*MATERIAL, NAME=Alloy_713LC_E56
**  ELSET VOL FRAC = 0.7
*DENSITY
0.0005239731, -1.0
0.0005239731, 1.0
*ELASTIC, TYPE=ENGINEERING CONSTANTS
20211164.2457, 20211164.2457, 20211164.2457, 0.3, 0.3, 0.3, 7773524.70988, 7773524.70988
7773524.70988, -1.0
20205779.3374, 20205779.3374, 20205779.3374, 0.3, 0.3, 0.3, 7771453.59129, 7771453.59129
7771453.59129, 1.0
*EXPANSION, TYPE=ORTHO, ZERO=0.0
5.6e-06, 5.6e-06, 5.6e-06, -1.0
5.6e-06, 5.6e-06, 5.6e-06, 1.0
*SOLID SECTION, ELSET=E56, MATERIAL=Alloy_713LC_E56
********************************************************************************
********************************************************************************
** <BEGIN> ~-~~-~~-~~-~~-~ AHB_A HINGE LINE NODE SET
*NSET, NSET=AHB_A
123, 127, 131, 135, 139, 143, 147, 151, 
155
** <END>   ~-~~-~~-~~-~~-~ AHB_A HINGE LINE NODE SET
** <BEGIN> ~-~~-~~-~~-~~-~ S_AHB_A_LINE HINGE SLAVE SURFACE (LINE)
*SURFACE, NAME=S_AHB_A_LINE, TYPE=NODE
AHB_A
** <END>   ~-~~-~~-~~-~~-~ S_AHB_A_LINE HINGE SLAVE SURFACE (LINE)
** <BEGIN> ~-~~-~~-~~-~~-~ M_AHB_B_SURF HINGE MASTER SURFACE
*SURFACE, NAME=M_AHB_B_SURF, TYPE=ELEMENT
17, S6
18, S6
19, S6
20, S6
21, S6
22, S6
23, S6
24, S6
** <END>   ~-~~-~~-~~-~~-~ M_AHB_B_SURF HINGE MASTER SURFACE
*TIE 
S_AHB_A_LINE, M_AHB_B_SURF
********************************************************************************
** <BEGIN> ~-~~-~~-~~-~~-~ BBC_C BUTT JOIN SLAVE NODE SET
*NSET, NSET=BBC_C
315, 316, 318, 319, 320, 322, 323, 324, 
326, 327, 328, 330, 331, 332, 334, 335, 
336, 338, 339, 340, 342, 343, 344, 346, 
347, 348, 350, 351, 352, 354, 355, 356, 
358, 359, 360, 362, 363, 364, 366, 367
** <END>   ~-~~-~~-~~-~~-~ BBC_C BUTT JOIN SLAVE NODE SET
** <BEGIN> ~-~~-~~-~~-~~-~ BBC_C BUTT JOIN SLAVE SURFACE
*SURFACE, NAME=BBC_CS, TYPE=NODE
BBC_C
** <END>   ~-~~-~~-~~-~~-~ BBC_C BUTT JOIN SLAVE SURFACE
** <BEGIN> ~-~~-~~-~~-~~-~ BBC_B BUTT JOIN MASTER SURFACE
*SURFACE, NAME=BBC_BS, TYPE=ELEMENT
25, S4
26, S4
27, S4
28, S4
29, S4
30, S4
31, S4
32, S4
** <END>   ~-~~-~~-~~-~~-~ BBC_B BUTT JOIN MASTER SURFACE
*TIE 
BBC_CS, BBC_BS
********************************************************************************
*INITIAL CONDITIONS, TYPE=TEMPERATURE
NALL, 0.0
********************************************************************************
*BOUNDARY
3, 1
3, 3
7, 1
7, 3
11, 1
11, 3
15, 1
15, 3
19, 1
19, 3
23, 1
23, 3
27, 1
27, 3
31, 1
31, 3
35, 1
35, 3
48, 2
49, 2
** ... 54 like lines cut
*STEP
*STATIC
*DLOAD
1, P1, 10000.0
3, P1, 10000.0
5, P1, 10000.0
7, P1, 10000.0
9, P1, 10000.0
11, P1, 10000.0
13, P1, 10000.0
15, P1, 10000.0
17, P1, 10000.0
19, P1, 10000.0
21, P1, 10000.0
23, P1, 10000.0
25, P1, 10000.0
27, P1, 10000.0
29, P1, 10000.0
31, P1, 10000.0
33, P1, 10000.0
35, P1, 10000.0
37, P1, 10000.0
39, P1, 10000.0
** ... 8 like lines cut
********************************************************************************
*NODE PRINT, NSET=NALL
U
*NODE FILE, OUTPUT=3D
U
*EL PRINT, ELSET=EALL
S
*EL FILE, OUTPUT=3D
S
*END STEP
********************************************************************************
