*HEADING
MODEL DYNAMICALLY GENERATED PGT2_X1.inp
** THIS MESH WAS GENERATED ON Thursday, April 11th, 2013 at 12:49:26 PM
********************************************************************************
**   NEX = 40
**   Pressure = -10000.0
**   matty = Alloy_713LC
********************************************************************************
** <BEGIN> ~-~~-~~-~~-~~-~~-~~-~~-~~-~~-~~-~~-~~-~~-~~-~ NX_MESH NODES
*NODE, NSET=NX_MESH
1, 0.0, -0.5, -0.5
2, 0.0, -0.5, -0.25
3, 0.0, -0.5, 0.0
4, 0.0, -0.5, 0.25
5, 0.0, -0.5, 0.5
6, 0.0, -0.25, -0.5
7, 0.0, -0.25, 0.0
8, 0.0, -0.25, 0.5
9, 0.0, 0.0, -0.5
10, 0.0, 0.0, -0.25
11, 0.0, 0.0, 0.0
12, 0.0, 0.0, 0.25
13, 0.0, 0.0, 0.5
14, 0.0, 0.25, -0.5
15, 0.0, 0.25, 0.0
16, 0.0, 0.25, 0.5
17, 0.0, 0.5, -0.5
18, 0.0, 0.5, -0.25
19, 0.0, 0.5, 0.0
20, 0.0, 0.5, 0.25
** ... 205 like lines cut
** <END> ~-~~-~~-~~-~~-~~-~~-~~-~~-~~-~~-~~-~~-~~-~~-~ NX_MESH NODES
** <BEGIN> ~-~~-~~-~~-~~-~~-~~-~~-~~-~~-~~-~~-~~-~~-~~-~ NA_MESH NODES
*NODE, NSET=NA_MESH
226, 3.0, -0.5, -0.5
227, 3.0, -0.5, -0.25
228, 3.0, -0.5, 0.0
229, 3.0, -0.5, 0.25
230, 3.0, -0.5, 0.5
231, 3.0, -0.25, -0.5
232, 3.0, -0.25, 0.0
233, 3.0, -0.25, 0.5
234, 3.0, 0.0, -0.5
235, 3.0, 0.0, -0.25
236, 3.0, 0.0, 0.0
237, 3.0, 0.0, 0.25
238, 3.0, 0.0, 0.5
239, 3.0, 0.25, -0.5
240, 3.0, 0.25, 0.0
241, 3.0, 0.25, 0.5
242, 3.0, 0.5, -0.5
243, 3.0, 0.5, -0.25
244, 3.0, 0.5, 0.0
245, 3.0, 0.5, 0.25
** ... 137 like lines cut
** <END> ~-~~-~~-~~-~~-~~-~~-~~-~~-~~-~~-~~-~~-~~-~~-~ NA_MESH NODES
*NSET, NSET=NALL
NX_MESH, NA_MESH
** <BEGIN> ~-~~-~~-~~-~~-~~-~~-~~-~~-~~-~~-~~-~~-~~-~~-~ EX_MESH ELEMENTS
*ELEMENT, TYPE=C3D20R, ELSET=E1
1, 1, 35, 43, 9, 3, 37, 45, 11, 22, 40, 27, 6, 
23, 41, 28, 7, 2, 36, 44, 10
*ELEMENT, TYPE=C3D20R, ELSET=E2
2, 3, 37, 45, 11, 5, 39, 47, 13, 23, 41, 28, 7, 
24, 42, 29, 8, 4, 38, 46, 12
*ELEMENT, TYPE=C3D20R, ELSET=E3
3, 9, 43, 51, 17, 11, 45, 53, 19, 27, 48, 32, 14, 
28, 49, 33, 15, 10, 44, 52, 18
*ELEMENT, TYPE=C3D20R, ELSET=E4
4, 11, 45, 53, 19, 13, 47, 55, 21, 28, 49, 33, 15, 
29, 50, 34, 16, 12, 46, 54, 20
*ELEMENT, TYPE=C3D20R, ELSET=E5
5, 35, 69, 77, 43, 37, 71, 79, 45, 56, 74, 61, 40, 
57, 75, 62, 41, 36, 70, 78, 44
*ELEMENT, TYPE=C3D20R, ELSET=E6
6, 37, 71, 79, 45, 39, 73, 81, 47, 57, 75, 62, 41, 
58, 76, 63, 42, 38, 72, 80, 46
*ELEMENT, TYPE=C3D20R, ELSET=E7
7, 43, 77, 85, 51, 45, 79, 87, 53, 61, 82, 66, 48, 
62, 83, 67, 49, 44, 78, 86, 52
*ELEMENT, TYPE=C3D20R, ELSET=E8
8, 45, 79, 87, 53, 47, 81, 89, 55, 62, 83, 67, 49, 
63, 84, 68, 50, 46, 80, 88, 54
*ELEMENT, TYPE=C3D20R, ELSET=E9
9, 69, 103, 111, 77, 71, 105, 113, 79, 90, 108, 95, 74, 
91, 109, 96, 75, 70, 104, 112, 78
*ELEMENT, TYPE=C3D20R, ELSET=E10
10, 71, 105, 113, 79, 73, 107, 115, 81, 91, 109, 96, 75, 
92, 110, 97, 76, 72, 106, 114, 80
*ELEMENT, TYPE=C3D20R, ELSET=E11
11, 77, 111, 119, 85, 79, 113, 121, 87, 95, 116, 100, 82, 
96, 117, 101, 83, 78, 112, 120, 86
*ELEMENT, TYPE=C3D20R, ELSET=E12
12, 79, 113, 121, 87, 81, 115, 123, 89, 96, 117, 101, 83, 
97, 118, 102, 84, 80, 114, 122, 88
*ELEMENT, TYPE=C3D20R, ELSET=E13
13, 103, 137, 145, 111, 105, 139, 147, 113, 124, 142, 129, 108, 
125, 143, 130, 109, 104, 138, 146, 112
*ELEMENT, TYPE=C3D20R, ELSET=E14
14, 105, 139, 147, 113, 107, 141, 149, 115, 125, 143, 130, 109, 
126, 144, 131, 110, 106, 140, 148, 114
*ELEMENT, TYPE=C3D20R, ELSET=E15
15, 111, 145, 153, 119, 113, 147, 155, 121, 129, 150, 134, 116, 
130, 151, 135, 117, 112, 146, 154, 120
*ELEMENT, TYPE=C3D20R, ELSET=E16
16, 113, 147, 155, 121, 115, 149, 157, 123, 130, 151, 135, 117, 
131, 152, 136, 118, 114, 148, 156, 122
*ELEMENT, TYPE=C3D20R, ELSET=E17
17, 137, 171, 179, 145, 139, 173, 181, 147, 158, 176, 163, 142, 
159, 177, 164, 143, 138, 172, 180, 146
*ELEMENT, TYPE=C3D20R, ELSET=E18
18, 139, 173, 181, 147, 141, 175, 183, 149, 159, 177, 164, 143, 
160, 178, 165, 144, 140, 174, 182, 148
*ELEMENT, TYPE=C3D20R, ELSET=E19
19, 145, 179, 187, 153, 147, 181, 189, 155, 163, 184, 168, 150, 
164, 185, 169, 151, 146, 180, 188, 154
*ELEMENT, TYPE=C3D20R, ELSET=E20
20, 147, 181, 189, 155, 149, 183, 191, 157, 164, 185, 169, 151, 
165, 186, 170, 152, 148, 182, 190, 156
** ... 12 like lines cut
** <END> ~-~~-~~-~~-~~-~~-~~-~~-~~-~~-~~-~~-~~-~~-~~-~ EX_MESH ELEMENTS
** <BEGIN> ~-~~-~~-~~-~~-~~-~~-~~-~~-~~-~~-~~-~~-~~-~~-~ EA_MESH ELEMENTS
*ELEMENT, TYPE=C3D20R, ELSET=E25
25, 226, 260, 268, 234, 228, 262, 270, 236, 247, 265, 252, 231, 
248, 266, 253, 232, 227, 261, 269, 235
*ELEMENT, TYPE=C3D20R, ELSET=E26
26, 228, 262, 270, 236, 230, 264, 272, 238, 248, 266, 253, 232, 
249, 267, 254, 233, 229, 263, 271, 237
*ELEMENT, TYPE=C3D20R, ELSET=E27
27, 234, 268, 276, 242, 236, 270, 278, 244, 252, 273, 257, 239, 
253, 274, 258, 240, 235, 269, 277, 243
*ELEMENT, TYPE=C3D20R, ELSET=E28
28, 236, 270, 278, 244, 238, 272, 280, 246, 253, 274, 258, 240, 
254, 275, 259, 241, 237, 271, 279, 245
*ELEMENT, TYPE=C3D20R, ELSET=E29
29, 260, 294, 302, 268, 262, 296, 304, 270, 281, 299, 286, 265, 
282, 300, 287, 266, 261, 295, 303, 269
*ELEMENT, TYPE=C3D20R, ELSET=E30
30, 262, 296, 304, 270, 264, 298, 306, 272, 282, 300, 287, 266, 
283, 301, 288, 267, 263, 297, 305, 271
*ELEMENT, TYPE=C3D20R, ELSET=E31
31, 268, 302, 310, 276, 270, 304, 312, 278, 286, 307, 291, 273, 
287, 308, 292, 274, 269, 303, 311, 277
*ELEMENT, TYPE=C3D20R, ELSET=E32
32, 270, 304, 312, 278, 272, 306, 314, 280, 287, 308, 292, 274, 
288, 309, 293, 275, 271, 305, 313, 279
*ELEMENT, TYPE=C3D20R, ELSET=E33
33, 294, 328, 336, 302, 296, 330, 338, 304, 315, 333, 320, 299, 
316, 334, 321, 300, 295, 329, 337, 303
*ELEMENT, TYPE=C3D20R, ELSET=E34
34, 296, 330, 338, 304, 298, 332, 340, 306, 316, 334, 321, 300, 
317, 335, 322, 301, 297, 331, 339, 305
*ELEMENT, TYPE=C3D20R, ELSET=E35
35, 302, 336, 344, 310, 304, 338, 346, 312, 320, 341, 325, 307, 
321, 342, 326, 308, 303, 337, 345, 311
*ELEMENT, TYPE=C3D20R, ELSET=E36
36, 304, 338, 346, 312, 306, 340, 348, 314, 321, 342, 326, 308, 
322, 343, 327, 309, 305, 339, 347, 313
*ELEMENT, TYPE=C3D20R, ELSET=E37
37, 328, 362, 370, 336, 330, 364, 372, 338, 349, 367, 354, 333, 
350, 368, 355, 334, 329, 363, 371, 337
*ELEMENT, TYPE=C3D20R, ELSET=E38
38, 330, 364, 372, 338, 332, 366, 374, 340, 350, 368, 355, 334, 
351, 369, 356, 335, 331, 365, 373, 339
*ELEMENT, TYPE=C3D20R, ELSET=E39
39, 336, 370, 378, 344, 338, 372, 380, 346, 354, 375, 359, 341, 
355, 376, 360, 342, 337, 371, 379, 345
*ELEMENT, TYPE=C3D20R, ELSET=E40
40, 338, 372, 380, 346, 340, 374, 382, 348, 355, 376, 360, 342, 
356, 377, 361, 343, 339, 373, 381, 347
** <END> ~-~~-~~-~~-~~-~~-~~-~~-~~-~~-~~-~~-~~-~~-~~-~ EA_MESH ELEMENTS
*ELSET, ELSET=EALL
1, 2, 3, 4, 5, 6, 7, 8, 9, 10, 11, 12, 13
14, 15, 16, 17, 18, 19, 20, 21, 22, 23, 24, 25, 26
27, 28, 29, 30, 31, 32, 33, 34, 35, 36, 37, 38, 39
40
********************************************************************************
*MATERIAL, NAME=Alloy_713LC_E1
**  ELSET VOL FRAC = 1.0
*DENSITY
0.000748533, -1.0
0.000748533, 1.0
*ELASTIC, TYPE=ENGINEERING CONSTANTS
28873091.7796, 28873091.7796, 28873091.7796, 0.3, 0.3, 0.3, 11105035.2998, 11105035.2998
11105035.2998, -1.0
28865399.0534, 28865399.0534, 28865399.0534, 0.3, 0.3, 0.3, 11102076.559, 11102076.559
11102076.559, 1.0
*EXPANSION, TYPE=ORTHO, ZERO=0.0
5.6e-06, 5.6e-06, 5.6e-06, -1.0
5.6e-06, 5.6e-06, 5.6e-06, 1.0
*SOLID SECTION, ELSET=E1, MATERIAL=Alloy_713LC_E1
*MATERIAL, NAME=Alloy_713LC_E2
**  ELSET VOL FRAC = 1.0
*DENSITY
0.000748533, -1.0
0.000748533, 1.0
*ELASTIC, TYPE=ENGINEERING CONSTANTS
28873091.7796, 28873091.7796, 28873091.7796, 0.3, 0.3, 0.3, 11105035.2998, 11105035.2998
11105035.2998, -1.0
28865399.0534, 28865399.0534, 28865399.0534, 0.3, 0.3, 0.3, 11102076.559, 11102076.559
11102076.559, 1.0
*EXPANSION, TYPE=ORTHO, ZERO=0.0
5.6e-06, 5.6e-06, 5.6e-06, -1.0
5.6e-06, 5.6e-06, 5.6e-06, 1.0
*SOLID SECTION, ELSET=E2, MATERIAL=Alloy_713LC_E2
*MATERIAL, NAME=Alloy_713LC_E3
**  ELSET VOL FRAC = 1.0
*DENSITY
0.000748533, -1.0
0.000748533, 1.0
*ELASTIC, TYPE=ENGINEERING CONSTANTS
28873091.7796, 28873091.7796, 28873091.7796, 0.3, 0.3, 0.3, 11105035.2998, 11105035.2998
11105035.2998, -1.0
28865399.0534, 28865399.0534, 28865399.0534, 0.3, 0.3, 0.3, 11102076.559, 11102076.559
11102076.559, 1.0
*EXPANSION, TYPE=ORTHO, ZERO=0.0
5.6e-06, 5.6e-06, 5.6e-06, -1.0
5.6e-06, 5.6e-06, 5.6e-06, 1.0
*SOLID SECTION, ELSET=E3, MATERIAL=Alloy_713LC_E3
*MATERIAL, NAME=Alloy_713LC_E4
**  ELSET VOL FRAC = 1.0
*DENSITY
0.000748533, -1.0
0.000748533, 1.0
*ELASTIC, TYPE=ENGINEERING CONSTANTS
28873091.7796, 28873091.7796, 28873091.7796, 0.3, 0.3, 0.3, 11105035.2998, 11105035.2998
11105035.2998, -1.0
28865399.0534, 28865399.0534, 28865399.0534, 0.3, 0.3, 0.3, 11102076.559, 11102076.559
11102076.559, 1.0
*EXPANSION, TYPE=ORTHO, ZERO=0.0
5.6e-06, 5.6e-06, 5.6e-06, -1.0
5.6e-06, 5.6e-06, 5.6e-06, 1.0
*SOLID SECTION, ELSET=E4, MATERIAL=Alloy_713LC_E4
*MATERIAL, NAME=Alloy_713LC_E5
**  ELSET VOL FRAC = 1.0
*DENSITY
0.000748533, -1.0
0.000748533, 1.0
*ELASTIC, TYPE=ENGINEERING CONSTANTS
28873091.7796, 28873091.7796, 28873091.7796, 0.3, 0.3, 0.3, 11105035.2998, 11105035.2998
11105035.2998, -1.0
28865399.0534, 28865399.0534, 28865399.0534, 0.3, 0.3, 0.3, 11102076.559, 11102076.559
11102076.559, 1.0
*EXPANSION, TYPE=ORTHO, ZERO=0.0
5.6e-06, 5.6e-06, 5.6e-06, -1.0
5.6e-06, 5.6e-06, 5.6e-06, 1.0
*SOLID SECTION, ELSET=E5, MATERIAL=Alloy_713LC_E5
*MATERIAL, NAME=Alloy_713LC_E6
**  ELSET VOL FRAC = 1.0
*DENSITY
0.000748533, -1.0
0.000748533, 1.0
*ELASTIC, TYPE=ENGINEERING CONSTANTS
28873091.7796, 28873091.7796, 28873091.7796, 0.3, 0.3, 0.3, 11105035.2998, 11105035.2998
11105035.2998, -1.0
28865399.0534, 28865399.0534, 28865399.0534, 0.3, 0.3, 0.3, 11102076.559, 11102076.559
11102076.559, 1.0
*EXPANSION, TYPE=ORTHO, ZERO=0.0
5.6e-06, 5.6e-06, 5.6e-06, -1.0
5.6e-06, 5.6e-06, 5.6e-06, 1.0
*SOLID SECTION, ELSET=E6, MATERIAL=Alloy_713LC_E6
*MATERIAL, NAME=Alloy_713LC_E7
**  ELSET VOL FRAC = 1.0
*DENSITY
0.000748533, -1.0
0.000748533, 1.0
*ELASTIC, TYPE=ENGINEERING CONSTANTS
28873091.7796, 28873091.7796, 28873091.7796, 0.3, 0.3, 0.3, 11105035.2998, 11105035.2998
11105035.2998, -1.0
28865399.0534, 28865399.0534, 28865399.0534, 0.3, 0.3, 0.3, 11102076.559, 11102076.559
11102076.559, 1.0
*EXPANSION, TYPE=ORTHO, ZERO=0.0
5.6e-06, 5.6e-06, 5.6e-06, -1.0
5.6e-06, 5.6e-06, 5.6e-06, 1.0
*SOLID SECTION, ELSET=E7, MATERIAL=Alloy_713LC_E7
*MATERIAL, NAME=Alloy_713LC_E8
**  ELSET VOL FRAC = 1.0
*DENSITY
0.000748533, -1.0
0.000748533, 1.0
*ELASTIC, TYPE=ENGINEERING CONSTANTS
28873091.7796, 28873091.7796, 28873091.7796, 0.3, 0.3, 0.3, 11105035.2998, 11105035.2998
11105035.2998, -1.0
28865399.0534, 28865399.0534, 28865399.0534, 0.3, 0.3, 0.3, 11102076.559, 11102076.559
11102076.559, 1.0
*EXPANSION, TYPE=ORTHO, ZERO=0.0
5.6e-06, 5.6e-06, 5.6e-06, -1.0
5.6e-06, 5.6e-06, 5.6e-06, 1.0
*SOLID SECTION, ELSET=E8, MATERIAL=Alloy_713LC_E8
*MATERIAL, NAME=Alloy_713LC_E9
**  ELSET VOL FRAC = 1.0
*DENSITY
0.000748533, -1.0
0.000748533, 1.0
*ELASTIC, TYPE=ENGINEERING CONSTANTS
28873091.7796, 28873091.7796, 28873091.7796, 0.3, 0.3, 0.3, 11105035.2998, 11105035.2998
11105035.2998, -1.0
28865399.0534, 28865399.0534, 28865399.0534, 0.3, 0.3, 0.3, 11102076.559, 11102076.559
11102076.559, 1.0
*EXPANSION, TYPE=ORTHO, ZERO=0.0
5.6e-06, 5.6e-06, 5.6e-06, -1.0
5.6e-06, 5.6e-06, 5.6e-06, 1.0
*SOLID SECTION, ELSET=E9, MATERIAL=Alloy_713LC_E9
*MATERIAL, NAME=Alloy_713LC_E10
**  ELSET VOL FRAC = 1.0
*DENSITY
0.000748533, -1.0
0.000748533, 1.0
*ELASTIC, TYPE=ENGINEERING CONSTANTS
28873091.7796, 28873091.7796, 28873091.7796, 0.3, 0.3, 0.3, 11105035.2998, 11105035.2998
11105035.2998, -1.0
28865399.0534, 28865399.0534, 28865399.0534, 0.3, 0.3, 0.3, 11102076.559, 11102076.559
11102076.559, 1.0
*EXPANSION, TYPE=ORTHO, ZERO=0.0
5.6e-06, 5.6e-06, 5.6e-06, -1.0
5.6e-06, 5.6e-06, 5.6e-06, 1.0
*SOLID SECTION, ELSET=E10, MATERIAL=Alloy_713LC_E10
*MATERIAL, NAME=Alloy_713LC_E11
**  ELSET VOL FRAC = 1.0
*DENSITY
0.000748533, -1.0
0.000748533, 1.0
*ELASTIC, TYPE=ENGINEERING CONSTANTS
28873091.7796, 28873091.7796, 28873091.7796, 0.3, 0.3, 0.3, 11105035.2998, 11105035.2998
11105035.2998, -1.0
28865399.0534, 28865399.0534, 28865399.0534, 0.3, 0.3, 0.3, 11102076.559, 11102076.559
11102076.559, 1.0
*EXPANSION, TYPE=ORTHO, ZERO=0.0
5.6e-06, 5.6e-06, 5.6e-06, -1.0
5.6e-06, 5.6e-06, 5.6e-06, 1.0
*SOLID SECTION, ELSET=E11, MATERIAL=Alloy_713LC_E11
*MATERIAL, NAME=Alloy_713LC_E12
**  ELSET VOL FRAC = 1.0
*DENSITY
0.000748533, -1.0
0.000748533, 1.0
*ELASTIC, TYPE=ENGINEERING CONSTANTS
28873091.7796, 28873091.7796, 28873091.7796, 0.3, 0.3, 0.3, 11105035.2998, 11105035.2998
11105035.2998, -1.0
28865399.0534, 28865399.0534, 28865399.0534, 0.3, 0.3, 0.3, 11102076.559, 11102076.559
11102076.559, 1.0
*EXPANSION, TYPE=ORTHO, ZERO=0.0
5.6e-06, 5.6e-06, 5.6e-06, -1.0
5.6e-06, 5.6e-06, 5.6e-06, 1.0
*SOLID SECTION, ELSET=E12, MATERIAL=Alloy_713LC_E12
*MATERIAL, NAME=Alloy_713LC_E13
**  ELSET VOL FRAC = 1.0
*DENSITY
0.000748533, -1.0
0.000748533, 1.0
*ELASTIC, TYPE=ENGINEERING CONSTANTS
28873091.7796, 28873091.7796, 28873091.7796, 0.3, 0.3, 0.3, 11105035.2998, 11105035.2998
11105035.2998, -1.0
28865399.0534, 28865399.0534, 28865399.0534, 0.3, 0.3, 0.3, 11102076.559, 11102076.559
11102076.559, 1.0
*EXPANSION, TYPE=ORTHO, ZERO=0.0
5.6e-06, 5.6e-06, 5.6e-06, -1.0
5.6e-06, 5.6e-06, 5.6e-06, 1.0
*SOLID SECTION, ELSET=E13, MATERIAL=Alloy_713LC_E13
*MATERIAL, NAME=Alloy_713LC_E14
**  ELSET VOL FRAC = 1.0
*DENSITY
0.000748533, -1.0
0.000748533, 1.0
*ELASTIC, TYPE=ENGINEERING CONSTANTS
28873091.7796, 28873091.7796, 28873091.7796, 0.3, 0.3, 0.3, 11105035.2998, 11105035.2998
11105035.2998, -1.0
28865399.0534, 28865399.0534, 28865399.0534, 0.3, 0.3, 0.3, 11102076.559, 11102076.559
11102076.559, 1.0
*EXPANSION, TYPE=ORTHO, ZERO=0.0
5.6e-06, 5.6e-06, 5.6e-06, -1.0
5.6e-06, 5.6e-06, 5.6e-06, 1.0
*SOLID SECTION, ELSET=E14, MATERIAL=Alloy_713LC_E14
*MATERIAL, NAME=Alloy_713LC_E15
**  ELSET VOL FRAC = 1.0
*DENSITY
0.000748533, -1.0
0.000748533, 1.0
*ELASTIC, TYPE=ENGINEERING CONSTANTS
28873091.7796, 28873091.7796, 28873091.7796, 0.3, 0.3, 0.3, 11105035.2998, 11105035.2998
11105035.2998, -1.0
28865399.0534, 28865399.0534, 28865399.0534, 0.3, 0.3, 0.3, 11102076.559, 11102076.559
11102076.559, 1.0
*EXPANSION, TYPE=ORTHO, ZERO=0.0
5.6e-06, 5.6e-06, 5.6e-06, -1.0
5.6e-06, 5.6e-06, 5.6e-06, 1.0
*SOLID SECTION, ELSET=E15, MATERIAL=Alloy_713LC_E15
*MATERIAL, NAME=Alloy_713LC_E16
**  ELSET VOL FRAC = 1.0
*DENSITY
0.000748533, -1.0
0.000748533, 1.0
*ELASTIC, TYPE=ENGINEERING CONSTANTS
28873091.7796, 28873091.7796, 28873091.7796, 0.3, 0.3, 0.3, 11105035.2998, 11105035.2998
11105035.2998, -1.0
28865399.0534, 28865399.0534, 28865399.0534, 0.3, 0.3, 0.3, 11102076.559, 11102076.559
11102076.559, 1.0
*EXPANSION, TYPE=ORTHO, ZERO=0.0
5.6e-06, 5.6e-06, 5.6e-06, -1.0
5.6e-06, 5.6e-06, 5.6e-06, 1.0
*SOLID SECTION, ELSET=E16, MATERIAL=Alloy_713LC_E16
*MATERIAL, NAME=Alloy_713LC_E17
**  ELSET VOL FRAC = 1.0
*DENSITY
0.000748533, -1.0
0.000748533, 1.0
*ELASTIC, TYPE=ENGINEERING CONSTANTS
28873091.7796, 28873091.7796, 28873091.7796, 0.3, 0.3, 0.3, 11105035.2998, 11105035.2998
11105035.2998, -1.0
28865399.0534, 28865399.0534, 28865399.0534, 0.3, 0.3, 0.3, 11102076.559, 11102076.559
11102076.559, 1.0
*EXPANSION, TYPE=ORTHO, ZERO=0.0
5.6e-06, 5.6e-06, 5.6e-06, -1.0
5.6e-06, 5.6e-06, 5.6e-06, 1.0
*SOLID SECTION, ELSET=E17, MATERIAL=Alloy_713LC_E17
*MATERIAL, NAME=Alloy_713LC_E18
**  ELSET VOL FRAC = 1.0
*DENSITY
0.000748533, -1.0
0.000748533, 1.0
*ELASTIC, TYPE=ENGINEERING CONSTANTS
28873091.7796, 28873091.7796, 28873091.7796, 0.3, 0.3, 0.3, 11105035.2998, 11105035.2998
11105035.2998, -1.0
28865399.0534, 28865399.0534, 28865399.0534, 0.3, 0.3, 0.3, 11102076.559, 11102076.559
11102076.559, 1.0
*EXPANSION, TYPE=ORTHO, ZERO=0.0
5.6e-06, 5.6e-06, 5.6e-06, -1.0
5.6e-06, 5.6e-06, 5.6e-06, 1.0
*SOLID SECTION, ELSET=E18, MATERIAL=Alloy_713LC_E18
*MATERIAL, NAME=Alloy_713LC_E19
**  ELSET VOL FRAC = 1.0
*DENSITY
0.000748533, -1.0
0.000748533, 1.0
*ELASTIC, TYPE=ENGINEERING CONSTANTS
28873091.7796, 28873091.7796, 28873091.7796, 0.3, 0.3, 0.3, 11105035.2998, 11105035.2998
11105035.2998, -1.0
28865399.0534, 28865399.0534, 28865399.0534, 0.3, 0.3, 0.3, 11102076.559, 11102076.559
11102076.559, 1.0
*EXPANSION, TYPE=ORTHO, ZERO=0.0
5.6e-06, 5.6e-06, 5.6e-06, -1.0
5.6e-06, 5.6e-06, 5.6e-06, 1.0
*SOLID SECTION, ELSET=E19, MATERIAL=Alloy_713LC_E19
*MATERIAL, NAME=Alloy_713LC_E20
**  ELSET VOL FRAC = 1.0
*DENSITY
0.000748533, -1.0
0.000748533, 1.0
*ELASTIC, TYPE=ENGINEERING CONSTANTS
28873091.7796, 28873091.7796, 28873091.7796, 0.3, 0.3, 0.3, 11105035.2998, 11105035.2998
11105035.2998, -1.0
28865399.0534, 28865399.0534, 28865399.0534, 0.3, 0.3, 0.3, 11102076.559, 11102076.559
11102076.559, 1.0
*EXPANSION, TYPE=ORTHO, ZERO=0.0
5.6e-06, 5.6e-06, 5.6e-06, -1.0
5.6e-06, 5.6e-06, 5.6e-06, 1.0
*SOLID SECTION, ELSET=E20, MATERIAL=Alloy_713LC_E20
*MATERIAL, NAME=Alloy_713LC_E21
**  ELSET VOL FRAC = 1.0
*DENSITY
0.000748533, -1.0
0.000748533, 1.0
*ELASTIC, TYPE=ENGINEERING CONSTANTS
28873091.7796, 28873091.7796, 28873091.7796, 0.3, 0.3, 0.3, 11105035.2998, 11105035.2998
11105035.2998, -1.0
28865399.0534, 28865399.0534, 28865399.0534, 0.3, 0.3, 0.3, 11102076.559, 11102076.559
11102076.559, 1.0
*EXPANSION, TYPE=ORTHO, ZERO=0.0
5.6e-06, 5.6e-06, 5.6e-06, -1.0
5.6e-06, 5.6e-06, 5.6e-06, 1.0
*SOLID SECTION, ELSET=E21, MATERIAL=Alloy_713LC_E21
*MATERIAL, NAME=Alloy_713LC_E22
**  ELSET VOL FRAC = 1.0
*DENSITY
0.000748533, -1.0
0.000748533, 1.0
*ELASTIC, TYPE=ENGINEERING CONSTANTS
28873091.7796, 28873091.7796, 28873091.7796, 0.3, 0.3, 0.3, 11105035.2998, 11105035.2998
11105035.2998, -1.0
28865399.0534, 28865399.0534, 28865399.0534, 0.3, 0.3, 0.3, 11102076.559, 11102076.559
11102076.559, 1.0
*EXPANSION, TYPE=ORTHO, ZERO=0.0
5.6e-06, 5.6e-06, 5.6e-06, -1.0
5.6e-06, 5.6e-06, 5.6e-06, 1.0
*SOLID SECTION, ELSET=E22, MATERIAL=Alloy_713LC_E22
*MATERIAL, NAME=Alloy_713LC_E23
**  ELSET VOL FRAC = 1.0
*DENSITY
0.000748533, -1.0
0.000748533, 1.0
*ELASTIC, TYPE=ENGINEERING CONSTANTS
28873091.7796, 28873091.7796, 28873091.7796, 0.3, 0.3, 0.3, 11105035.2998, 11105035.2998
11105035.2998, -1.0
28865399.0534, 28865399.0534, 28865399.0534, 0.3, 0.3, 0.3, 11102076.559, 11102076.559
11102076.559, 1.0
*EXPANSION, TYPE=ORTHO, ZERO=0.0
5.6e-06, 5.6e-06, 5.6e-06, -1.0
5.6e-06, 5.6e-06, 5.6e-06, 1.0
*SOLID SECTION, ELSET=E23, MATERIAL=Alloy_713LC_E23
*MATERIAL, NAME=Alloy_713LC_E24
**  ELSET VOL FRAC = 1.0
*DENSITY
0.000748533, -1.0
0.000748533, 1.0
*ELASTIC, TYPE=ENGINEERING CONSTANTS
28873091.7796, 28873091.7796, 28873091.7796, 0.3, 0.3, 0.3, 11105035.2998, 11105035.2998
11105035.2998, -1.0
28865399.0534, 28865399.0534, 28865399.0534, 0.3, 0.3, 0.3, 11102076.559, 11102076.559
11102076.559, 1.0
*EXPANSION, TYPE=ORTHO, ZERO=0.0
5.6e-06, 5.6e-06, 5.6e-06, -1.0
5.6e-06, 5.6e-06, 5.6e-06, 1.0
*SOLID SECTION, ELSET=E24, MATERIAL=Alloy_713LC_E24
********************************************************************************
*MATERIAL, NAME=Alloy_713LC_E25
**  ELSET VOL FRAC = 1.0
*DENSITY
0.000748533, -1.0
0.000748533, 1.0
*ELASTIC, TYPE=ENGINEERING CONSTANTS
28873091.7796, 28873091.7796, 28873091.7796, 0.3, 0.3, 0.3, 11105035.2998, 11105035.2998
11105035.2998, -1.0
28865399.0534, 28865399.0534, 28865399.0534, 0.3, 0.3, 0.3, 11102076.559, 11102076.559
11102076.559, 1.0
*EXPANSION, TYPE=ORTHO, ZERO=0.0
5.6e-06, 5.6e-06, 5.6e-06, -1.0
5.6e-06, 5.6e-06, 5.6e-06, 1.0
*SOLID SECTION, ELSET=E25, MATERIAL=Alloy_713LC_E25
*MATERIAL, NAME=Alloy_713LC_E26
**  ELSET VOL FRAC = 1.0
*DENSITY
0.000748533, -1.0
0.000748533, 1.0
*ELASTIC, TYPE=ENGINEERING CONSTANTS
28873091.7796, 28873091.7796, 28873091.7796, 0.3, 0.3, 0.3, 11105035.2998, 11105035.2998
11105035.2998, -1.0
28865399.0534, 28865399.0534, 28865399.0534, 0.3, 0.3, 0.3, 11102076.559, 11102076.559
11102076.559, 1.0
*EXPANSION, TYPE=ORTHO, ZERO=0.0
5.6e-06, 5.6e-06, 5.6e-06, -1.0
5.6e-06, 5.6e-06, 5.6e-06, 1.0
*SOLID SECTION, ELSET=E26, MATERIAL=Alloy_713LC_E26
*MATERIAL, NAME=Alloy_713LC_E27
**  ELSET VOL FRAC = 1.0
*DENSITY
0.000748533, -1.0
0.000748533, 1.0
*ELASTIC, TYPE=ENGINEERING CONSTANTS
28873091.7796, 28873091.7796, 28873091.7796, 0.3, 0.3, 0.3, 11105035.2998, 11105035.2998
11105035.2998, -1.0
28865399.0534, 28865399.0534, 28865399.0534, 0.3, 0.3, 0.3, 11102076.559, 11102076.559
11102076.559, 1.0
*EXPANSION, TYPE=ORTHO, ZERO=0.0
5.6e-06, 5.6e-06, 5.6e-06, -1.0
5.6e-06, 5.6e-06, 5.6e-06, 1.0
*SOLID SECTION, ELSET=E27, MATERIAL=Alloy_713LC_E27
*MATERIAL, NAME=Alloy_713LC_E28
**  ELSET VOL FRAC = 1.0
*DENSITY
0.000748533, -1.0
0.000748533, 1.0
*ELASTIC, TYPE=ENGINEERING CONSTANTS
28873091.7796, 28873091.7796, 28873091.7796, 0.3, 0.3, 0.3, 11105035.2998, 11105035.2998
11105035.2998, -1.0
28865399.0534, 28865399.0534, 28865399.0534, 0.3, 0.3, 0.3, 11102076.559, 11102076.559
11102076.559, 1.0
*EXPANSION, TYPE=ORTHO, ZERO=0.0
5.6e-06, 5.6e-06, 5.6e-06, -1.0
5.6e-06, 5.6e-06, 5.6e-06, 1.0
*SOLID SECTION, ELSET=E28, MATERIAL=Alloy_713LC_E28
*MATERIAL, NAME=Alloy_713LC_E29
**  ELSET VOL FRAC = 1.0
*DENSITY
0.000748533, -1.0
0.000748533, 1.0
*ELASTIC, TYPE=ENGINEERING CONSTANTS
28873091.7796, 28873091.7796, 28873091.7796, 0.3, 0.3, 0.3, 11105035.2998, 11105035.2998
11105035.2998, -1.0
28865399.0534, 28865399.0534, 28865399.0534, 0.3, 0.3, 0.3, 11102076.559, 11102076.559
11102076.559, 1.0
*EXPANSION, TYPE=ORTHO, ZERO=0.0
5.6e-06, 5.6e-06, 5.6e-06, -1.0
5.6e-06, 5.6e-06, 5.6e-06, 1.0
*SOLID SECTION, ELSET=E29, MATERIAL=Alloy_713LC_E29
*MATERIAL, NAME=Alloy_713LC_E30
**  ELSET VOL FRAC = 1.0
*DENSITY
0.000748533, -1.0
0.000748533, 1.0
*ELASTIC, TYPE=ENGINEERING CONSTANTS
28873091.7796, 28873091.7796, 28873091.7796, 0.3, 0.3, 0.3, 11105035.2998, 11105035.2998
11105035.2998, -1.0
28865399.0534, 28865399.0534, 28865399.0534, 0.3, 0.3, 0.3, 11102076.559, 11102076.559
11102076.559, 1.0
*EXPANSION, TYPE=ORTHO, ZERO=0.0
5.6e-06, 5.6e-06, 5.6e-06, -1.0
5.6e-06, 5.6e-06, 5.6e-06, 1.0
*SOLID SECTION, ELSET=E30, MATERIAL=Alloy_713LC_E30
*MATERIAL, NAME=Alloy_713LC_E31
**  ELSET VOL FRAC = 1.0
*DENSITY
0.000748533, -1.0
0.000748533, 1.0
*ELASTIC, TYPE=ENGINEERING CONSTANTS
28873091.7796, 28873091.7796, 28873091.7796, 0.3, 0.3, 0.3, 11105035.2998, 11105035.2998
11105035.2998, -1.0
28865399.0534, 28865399.0534, 28865399.0534, 0.3, 0.3, 0.3, 11102076.559, 11102076.559
11102076.559, 1.0
*EXPANSION, TYPE=ORTHO, ZERO=0.0
5.6e-06, 5.6e-06, 5.6e-06, -1.0
5.6e-06, 5.6e-06, 5.6e-06, 1.0
*SOLID SECTION, ELSET=E31, MATERIAL=Alloy_713LC_E31
*MATERIAL, NAME=Alloy_713LC_E32
**  ELSET VOL FRAC = 1.0
*DENSITY
0.000748533, -1.0
0.000748533, 1.0
*ELASTIC, TYPE=ENGINEERING CONSTANTS
28873091.7796, 28873091.7796, 28873091.7796, 0.3, 0.3, 0.3, 11105035.2998, 11105035.2998
11105035.2998, -1.0
28865399.0534, 28865399.0534, 28865399.0534, 0.3, 0.3, 0.3, 11102076.559, 11102076.559
11102076.559, 1.0
*EXPANSION, TYPE=ORTHO, ZERO=0.0
5.6e-06, 5.6e-06, 5.6e-06, -1.0
5.6e-06, 5.6e-06, 5.6e-06, 1.0
*SOLID SECTION, ELSET=E32, MATERIAL=Alloy_713LC_E32
*MATERIAL, NAME=Alloy_713LC_E33
**  ELSET VOL FRAC = 1.0
*DENSITY
0.000748533, -1.0
0.000748533, 1.0
*ELASTIC, TYPE=ENGINEERING CONSTANTS
28873091.7796, 28873091.7796, 28873091.7796, 0.3, 0.3, 0.3, 11105035.2998, 11105035.2998
11105035.2998, -1.0
28865399.0534, 28865399.0534, 28865399.0534, 0.3, 0.3, 0.3, 11102076.559, 11102076.559
11102076.559, 1.0
*EXPANSION, TYPE=ORTHO, ZERO=0.0
5.6e-06, 5.6e-06, 5.6e-06, -1.0
5.6e-06, 5.6e-06, 5.6e-06, 1.0
*SOLID SECTION, ELSET=E33, MATERIAL=Alloy_713LC_E33
*MATERIAL, NAME=Alloy_713LC_E34
**  ELSET VOL FRAC = 1.0
*DENSITY
0.000748533, -1.0
0.000748533, 1.0
*ELASTIC, TYPE=ENGINEERING CONSTANTS
28873091.7796, 28873091.7796, 28873091.7796, 0.3, 0.3, 0.3, 11105035.2998, 11105035.2998
11105035.2998, -1.0
28865399.0534, 28865399.0534, 28865399.0534, 0.3, 0.3, 0.3, 11102076.559, 11102076.559
11102076.559, 1.0
*EXPANSION, TYPE=ORTHO, ZERO=0.0
5.6e-06, 5.6e-06, 5.6e-06, -1.0
5.6e-06, 5.6e-06, 5.6e-06, 1.0
*SOLID SECTION, ELSET=E34, MATERIAL=Alloy_713LC_E34
*MATERIAL, NAME=Alloy_713LC_E35
**  ELSET VOL FRAC = 1.0
*DENSITY
0.000748533, -1.0
0.000748533, 1.0
*ELASTIC, TYPE=ENGINEERING CONSTANTS
28873091.7796, 28873091.7796, 28873091.7796, 0.3, 0.3, 0.3, 11105035.2998, 11105035.2998
11105035.2998, -1.0
28865399.0534, 28865399.0534, 28865399.0534, 0.3, 0.3, 0.3, 11102076.559, 11102076.559
11102076.559, 1.0
*EXPANSION, TYPE=ORTHO, ZERO=0.0
5.6e-06, 5.6e-06, 5.6e-06, -1.0
5.6e-06, 5.6e-06, 5.6e-06, 1.0
*SOLID SECTION, ELSET=E35, MATERIAL=Alloy_713LC_E35
*MATERIAL, NAME=Alloy_713LC_E36
**  ELSET VOL FRAC = 1.0
*DENSITY
0.000748533, -1.0
0.000748533, 1.0
*ELASTIC, TYPE=ENGINEERING CONSTANTS
28873091.7796, 28873091.7796, 28873091.7796, 0.3, 0.3, 0.3, 11105035.2998, 11105035.2998
11105035.2998, -1.0
28865399.0534, 28865399.0534, 28865399.0534, 0.3, 0.3, 0.3, 11102076.559, 11102076.559
11102076.559, 1.0
*EXPANSION, TYPE=ORTHO, ZERO=0.0
5.6e-06, 5.6e-06, 5.6e-06, -1.0
5.6e-06, 5.6e-06, 5.6e-06, 1.0
*SOLID SECTION, ELSET=E36, MATERIAL=Alloy_713LC_E36
*MATERIAL, NAME=Alloy_713LC_E37
**  ELSET VOL FRAC = 1.0
*DENSITY
0.000748533, -1.0
0.000748533, 1.0
*ELASTIC, TYPE=ENGINEERING CONSTANTS
28873091.7796, 28873091.7796, 28873091.7796, 0.3, 0.3, 0.3, 11105035.2998, 11105035.2998
11105035.2998, -1.0
28865399.0534, 28865399.0534, 28865399.0534, 0.3, 0.3, 0.3, 11102076.559, 11102076.559
11102076.559, 1.0
*EXPANSION, TYPE=ORTHO, ZERO=0.0
5.6e-06, 5.6e-06, 5.6e-06, -1.0
5.6e-06, 5.6e-06, 5.6e-06, 1.0
*SOLID SECTION, ELSET=E37, MATERIAL=Alloy_713LC_E37
*MATERIAL, NAME=Alloy_713LC_E38
**  ELSET VOL FRAC = 1.0
*DENSITY
0.000748533, -1.0
0.000748533, 1.0
*ELASTIC, TYPE=ENGINEERING CONSTANTS
28873091.7796, 28873091.7796, 28873091.7796, 0.3, 0.3, 0.3, 11105035.2998, 11105035.2998
11105035.2998, -1.0
28865399.0534, 28865399.0534, 28865399.0534, 0.3, 0.3, 0.3, 11102076.559, 11102076.559
11102076.559, 1.0
*EXPANSION, TYPE=ORTHO, ZERO=0.0
5.6e-06, 5.6e-06, 5.6e-06, -1.0
5.6e-06, 5.6e-06, 5.6e-06, 1.0
*SOLID SECTION, ELSET=E38, MATERIAL=Alloy_713LC_E38
*MATERIAL, NAME=Alloy_713LC_E39
**  ELSET VOL FRAC = 1.0
*DENSITY
0.000748533, -1.0
0.000748533, 1.0
*ELASTIC, TYPE=ENGINEERING CONSTANTS
28873091.7796, 28873091.7796, 28873091.7796, 0.3, 0.3, 0.3, 11105035.2998, 11105035.2998
11105035.2998, -1.0
28865399.0534, 28865399.0534, 28865399.0534, 0.3, 0.3, 0.3, 11102076.559, 11102076.559
11102076.559, 1.0
*EXPANSION, TYPE=ORTHO, ZERO=0.0
5.6e-06, 5.6e-06, 5.6e-06, -1.0
5.6e-06, 5.6e-06, 5.6e-06, 1.0
*SOLID SECTION, ELSET=E39, MATERIAL=Alloy_713LC_E39
*MATERIAL, NAME=Alloy_713LC_E40
**  ELSET VOL FRAC = 1.0
*DENSITY
0.000748533, -1.0
0.000748533, 1.0
*ELASTIC, TYPE=ENGINEERING CONSTANTS
28873091.7796, 28873091.7796, 28873091.7796, 0.3, 0.3, 0.3, 11105035.2998, 11105035.2998
11105035.2998, -1.0
28865399.0534, 28865399.0534, 28865399.0534, 0.3, 0.3, 0.3, 11102076.559, 11102076.559
11102076.559, 1.0
*EXPANSION, TYPE=ORTHO, ZERO=0.0
5.6e-06, 5.6e-06, 5.6e-06, -1.0
5.6e-06, 5.6e-06, 5.6e-06, 1.0
*SOLID SECTION, ELSET=E40, MATERIAL=Alloy_713LC_E40
********************************************************************************
********************************************************************************
********************************************************************************
********************************************************************************
** <BEGIN> ~-~~-~~-~~-~~-~ XRA_X JOIN SLAVE SURFACE
*SURFACE, NAME=XRA_XS, TYPE=ELEMENT
21, S4
22, S4
23, S4
24, S4
** <END> ~-~~-~~-~~-~~-~ XRA_X JOIN SLAVE SURFACE
** <BEGIN> ~-~~-~~-~~-~~-~ XRA_A JOIN MASTER SURFACE
*SURFACE, NAME=XRA_AS, TYPE=ELEMENT
25, S6
26, S6
27, S6
28, S6
** <END> ~-~~-~~-~~-~~-~ XRA_A JOIN MASTER SURFACE
*TIE 
XRA_XS, XRA_AS
********************************************************************************
*INITIAL CONDITIONS, TYPE=TEMPERATURE
NALL, 0.0
********************************************************************************
*BOUNDARY
1, 1
2, 1
3, 1
3, 3
4, 1
5, 1
6, 1
7, 1
7, 3
8, 1
9, 1
9, 2
10, 1
10, 2
11, 1
11, 2
11, 3
12, 1
12, 2
13, 1
** ... 11 like lines cut
*STEP
*STATIC
*DLOAD
37, P4, -10000.0
38, P4, -10000.0
39, P4, -10000.0
40, P4, -10000.0
********************************************************************************
*NODE PRINT, NSET=NALL
U
*NODE FILE, OUTPUT=3D
U
*EL PRINT, ELSET=EALL
S
*EL FILE, OUTPUT=3D
S
*END STEP
********************************************************************************
