*HEADING
MODEL DYNAMICALLY GENERATED PLAYGROUND_11_X1.inp
** THIS MESH WAS GENERATED ON Friday, April 26th, 2013 at 03:47:29 PM
********************************************************************************
**   Pressure = -10000.0
**   matty = Alloy_713LC
********************************************************************************
** <BEGIN> ~-~~-~~-~~-~~-~ NX_MESH NODES
*NODE, NSET=NX_MESH
1, -0.5, -0.5, 0.0
2, -0.5, -0.5, 1.0
3, -0.5, -0.5, 2.0
4, -0.5, -0.5, 3.0
5, -0.5, -0.5, 4.0
6, -0.5, -0.25, 0.0
7, -0.5, -0.25, 2.0
8, -0.5, -0.25, 4.0
9, -0.5, 0.0, 0.0
10, -0.5, 0.0, 1.0
11, -0.5, 0.0, 2.0
12, -0.5, 0.0, 3.0
13, -0.5, 0.0, 4.0
14, -0.5, 0.25, 0.0
15, -0.5, 0.25, 2.0
16, -0.5, 0.25, 4.0
17, -0.5, 0.5, 0.0
18, -0.5, 0.5, 1.0
19, -0.5, 0.5, 2.0
20, -0.5, 0.5, 3.0
** ... 69 like lines cut
** <END> ~-~~-~~-~~-~~-~ NX_MESH NODES
** <BEGIN> ~-~~-~~-~~-~~-~ NA_MESH NODES
*NODE, NSET=NA_MESH
90, 0.0, -10.0, -0.5
91, 0.0, -10.0, -0.25
92, 0.0, -10.0, 0.0
93, 0.0, -10.0, 0.25
94, 0.0, -10.0, 0.5
95, 0.0, -7.5, -0.5
96, 0.0, -7.5, 0.0
97, 0.0, -7.5, 0.5
98, 0.0, -5.0, -0.5
99, 0.0, -5.0, -0.25
100, 0.0, -5.0, 0.0
101, 0.0, -5.0, 0.25
102, 0.0, -5.0, 0.5
103, 0.0, -2.5, -0.5
104, 0.0, -2.5, 0.0
105, 0.0, -2.5, 0.5
106, 0.0, 0.0, -0.5
107, 0.0, 0.0, -0.25
108, 0.0, 0.0, 0.0
109, 0.0, 0.0, 0.25
** ... 137 like lines cut
** <END> ~-~~-~~-~~-~~-~ NA_MESH NODES
** <BEGIN> ~-~~-~~-~~-~~-~ NB_MESH NODES
*NODE, NSET=NB_MESH
247, 4.25, 10.0, 0.0
248, 4.625, 10.0, 0.0
249, 5.0, 10.0, 0.0
250, 5.375, 10.0, 0.0
251, 5.75, 10.0, 0.0
252, 4.3125, 7.5, 0.0
253, 5.0, 7.5, 0.0
254, 5.6875, 7.5, 0.0
255, 4.375, 5.0, 0.0
256, 4.6875, 5.0, 0.0
257, 5.0, 5.0, 0.0
258, 5.3125, 5.0, 0.0
259, 5.625, 5.0, 0.0
260, 4.4375, 2.5, 0.0
261, 5.0, 2.5, 0.0
262, 5.5625, 2.5, 0.0
263, 4.5, 0.0, 0.0
264, 4.75, 0.0, 0.0
265, 5.0, 0.0, 0.0
266, 5.25, 0.0, 0.0
** ... 137 like lines cut
** <END> ~-~~-~~-~~-~~-~ NB_MESH NODES
*NSET, NSET=NALL
NX_MESH, NA_MESH, NB_MESH
** <BEGIN> ~-~~-~~-~~-~~-~ EX_MESH ELEMENTS
*ELEMENT, TYPE=C3D20R, ELSET=E1
1, 1, 35, 43, 9, 3, 37, 45, 11, 22, 40, 27, 6, 
23, 41, 28, 7, 2, 36, 44, 10
*ELEMENT, TYPE=C3D20R, ELSET=E2
2, 3, 37, 45, 11, 5, 39, 47, 13, 23, 41, 28, 7, 
24, 42, 29, 8, 4, 38, 46, 12
*ELEMENT, TYPE=C3D20R, ELSET=E3
3, 9, 43, 51, 17, 11, 45, 53, 19, 27, 48, 32, 14, 
28, 49, 33, 15, 10, 44, 52, 18
*ELEMENT, TYPE=C3D20R, ELSET=E4
4, 11, 45, 53, 19, 13, 47, 55, 21, 28, 49, 33, 15, 
29, 50, 34, 16, 12, 46, 54, 20
*ELEMENT, TYPE=C3D20R, ELSET=E5
5, 35, 69, 77, 43, 37, 71, 79, 45, 56, 74, 61, 40, 
57, 75, 62, 41, 36, 70, 78, 44
*ELEMENT, TYPE=C3D20R, ELSET=E6
6, 37, 71, 79, 45, 39, 73, 81, 47, 57, 75, 62, 41, 
58, 76, 63, 42, 38, 72, 80, 46
*ELEMENT, TYPE=C3D20R, ELSET=E7
7, 43, 77, 85, 51, 45, 79, 87, 53, 61, 82, 66, 48, 
62, 83, 67, 49, 44, 78, 86, 52
*ELEMENT, TYPE=C3D20R, ELSET=E8
8, 45, 79, 87, 53, 47, 81, 89, 55, 62, 83, 67, 49, 
63, 84, 68, 50, 46, 80, 88, 54
** <END> ~-~~-~~-~~-~~-~ EX_MESH ELEMENTS
** <BEGIN> ~-~~-~~-~~-~~-~ EA_MESH ELEMENTS
*ELEMENT, TYPE=C3D20R, ELSET=E9
9, 90, 150, 158, 98, 92, 152, 160, 100, 127, 155, 132, 95, 
128, 156, 133, 96, 91, 151, 159, 99
*ELEMENT, TYPE=C3D20R, ELSET=E10
10, 92, 152, 160, 100, 94, 154, 162, 102, 128, 156, 133, 96, 
129, 157, 134, 97, 93, 153, 161, 101
*ELEMENT, TYPE=C3D20R, ELSET=E11
11, 98, 158, 166, 106, 100, 160, 168, 108, 132, 163, 137, 103, 
133, 164, 138, 104, 99, 159, 167, 107
*ELEMENT, TYPE=C3D20R, ELSET=E12
12, 100, 160, 168, 108, 102, 162, 170, 110, 133, 164, 138, 104, 
134, 165, 139, 105, 101, 161, 169, 109
*ELEMENT, TYPE=C3D20R, ELSET=E13
13, 106, 166, 174, 114, 108, 168, 176, 116, 137, 171, 142, 111, 
138, 172, 143, 112, 107, 167, 175, 115
*ELEMENT, TYPE=C3D20R, ELSET=E14
14, 108, 168, 176, 116, 110, 170, 178, 118, 138, 172, 143, 112, 
139, 173, 144, 113, 109, 169, 177, 117
*ELEMENT, TYPE=C3D20R, ELSET=E15
15, 114, 174, 182, 122, 116, 176, 184, 124, 142, 179, 147, 119, 
143, 180, 148, 120, 115, 175, 183, 123
*ELEMENT, TYPE=C3D20R, ELSET=E16
16, 116, 176, 184, 124, 118, 178, 186, 126, 143, 180, 148, 120, 
144, 181, 149, 121, 117, 177, 185, 125
*ELEMENT, TYPE=C3D20R, ELSET=E17
17, 150, 210, 218, 158, 152, 212, 220, 160, 187, 215, 192, 155, 
188, 216, 193, 156, 151, 211, 219, 159
*ELEMENT, TYPE=C3D20R, ELSET=E18
18, 152, 212, 220, 160, 154, 214, 222, 162, 188, 216, 193, 156, 
189, 217, 194, 157, 153, 213, 221, 161
*ELEMENT, TYPE=C3D20R, ELSET=E19
19, 158, 218, 226, 166, 160, 220, 228, 168, 192, 223, 197, 163, 
193, 224, 198, 164, 159, 219, 227, 167
*ELEMENT, TYPE=C3D20R, ELSET=E20
20, 160, 220, 228, 168, 162, 222, 230, 170, 193, 224, 198, 164, 
194, 225, 199, 165, 161, 221, 229, 169
*ELEMENT, TYPE=C3D20R, ELSET=E21
21, 166, 226, 234, 174, 168, 228, 236, 176, 197, 231, 202, 171, 
198, 232, 203, 172, 167, 227, 235, 175
*ELEMENT, TYPE=C3D20R, ELSET=E22
22, 168, 228, 236, 176, 170, 230, 238, 178, 198, 232, 203, 172, 
199, 233, 204, 173, 169, 229, 237, 177
*ELEMENT, TYPE=C3D20R, ELSET=E23
23, 174, 234, 242, 182, 176, 236, 244, 184, 202, 239, 207, 179, 
203, 240, 208, 180, 175, 235, 243, 183
*ELEMENT, TYPE=C3D20R, ELSET=E24
24, 176, 236, 244, 184, 178, 238, 246, 186, 203, 240, 208, 180, 
204, 241, 209, 181, 177, 237, 245, 185
** <END> ~-~~-~~-~~-~~-~ EA_MESH ELEMENTS
** <BEGIN> ~-~~-~~-~~-~~-~ EB_MESH ELEMENTS
*ELEMENT, TYPE=C3D20R, ELSET=E25
25, 247, 307, 315, 255, 249, 309, 317, 257, 284, 312, 289, 252, 
285, 313, 290, 253, 248, 308, 316, 256
*ELEMENT, TYPE=C3D20R, ELSET=E26
26, 249, 309, 317, 257, 251, 311, 319, 259, 285, 313, 290, 253, 
286, 314, 291, 254, 250, 310, 318, 258
*ELEMENT, TYPE=C3D20R, ELSET=E27
27, 255, 315, 323, 263, 257, 317, 325, 265, 289, 320, 294, 260, 
290, 321, 295, 261, 256, 316, 324, 264
*ELEMENT, TYPE=C3D20R, ELSET=E28
28, 257, 317, 325, 265, 259, 319, 327, 267, 290, 321, 295, 261, 
291, 322, 296, 262, 258, 318, 326, 266
*ELEMENT, TYPE=C3D20R, ELSET=E29
29, 263, 323, 331, 271, 265, 325, 333, 273, 294, 328, 299, 268, 
295, 329, 300, 269, 264, 324, 332, 272
*ELEMENT, TYPE=C3D20R, ELSET=E30
30, 265, 325, 333, 273, 267, 327, 335, 275, 295, 329, 300, 269, 
296, 330, 301, 270, 266, 326, 334, 274
*ELEMENT, TYPE=C3D20R, ELSET=E31
31, 271, 331, 339, 279, 273, 333, 341, 281, 299, 336, 304, 276, 
300, 337, 305, 277, 272, 332, 340, 280
*ELEMENT, TYPE=C3D20R, ELSET=E32
32, 273, 333, 341, 281, 275, 335, 343, 283, 300, 337, 305, 277, 
301, 338, 306, 278, 274, 334, 342, 282
*ELEMENT, TYPE=C3D20R, ELSET=E33
33, 307, 367, 375, 315, 309, 369, 377, 317, 344, 372, 349, 312, 
345, 373, 350, 313, 308, 368, 376, 316
*ELEMENT, TYPE=C3D20R, ELSET=E34
34, 309, 369, 377, 317, 311, 371, 379, 319, 345, 373, 350, 313, 
346, 374, 351, 314, 310, 370, 378, 318
*ELEMENT, TYPE=C3D20R, ELSET=E35
35, 315, 375, 383, 323, 317, 377, 385, 325, 349, 380, 354, 320, 
350, 381, 355, 321, 316, 376, 384, 324
*ELEMENT, TYPE=C3D20R, ELSET=E36
36, 317, 377, 385, 325, 319, 379, 387, 327, 350, 381, 355, 321, 
351, 382, 356, 322, 318, 378, 386, 326
*ELEMENT, TYPE=C3D20R, ELSET=E37
37, 323, 383, 391, 331, 325, 385, 393, 333, 354, 388, 359, 328, 
355, 389, 360, 329, 324, 384, 392, 332
*ELEMENT, TYPE=C3D20R, ELSET=E38
38, 325, 385, 393, 333, 327, 387, 395, 335, 355, 389, 360, 329, 
356, 390, 361, 330, 326, 386, 394, 334
*ELEMENT, TYPE=C3D20R, ELSET=E39
39, 331, 391, 399, 339, 333, 393, 401, 341, 359, 396, 364, 336, 
360, 397, 365, 337, 332, 392, 400, 340
*ELEMENT, TYPE=C3D20R, ELSET=E40
40, 333, 393, 401, 341, 335, 395, 403, 343, 360, 397, 365, 337, 
361, 398, 366, 338, 334, 394, 402, 342
** <END> ~-~~-~~-~~-~~-~ EB_MESH ELEMENTS
*ELSET, ELSET=EALL
1, 2, 3, 4, 5, 6, 7, 8, 9, 10, 11, 12, 13
14, 15, 16, 17, 18, 19, 20, 21, 22, 23, 24, 25, 26
27, 28, 29, 30, 31, 32, 33, 34, 35, 36, 37, 38, 39
40
********************************************************************************
*MATERIAL, NAME=Alloy_713LC_E1
**  ELSET VOL FRAC = 1.0
*DENSITY
0.000748533, -1.0
0.000748533, 1.0
*ELASTIC, TYPE=ENGINEERING CONSTANTS
28873091.7796, 28873091.7796, 28873091.7796, 0.3, 0.3, 0.3, 11105035.2998, 11105035.2998
11105035.2998, -1.0
28865399.0534, 28865399.0534, 28865399.0534, 0.3, 0.3, 0.3, 11102076.559, 11102076.559
11102076.559, 1.0
*EXPANSION, TYPE=ORTHO, ZERO=0.0
5.6e-06, 5.6e-06, 5.6e-06, -1.0
5.6e-06, 5.6e-06, 5.6e-06, 1.0
*SOLID SECTION, ELSET=E1, MATERIAL=Alloy_713LC_E1
*MATERIAL, NAME=Alloy_713LC_E2
**  ELSET VOL FRAC = 1.0
*DENSITY
0.000748533, -1.0
0.000748533, 1.0
*ELASTIC, TYPE=ENGINEERING CONSTANTS
28873091.7796, 28873091.7796, 28873091.7796, 0.3, 0.3, 0.3, 11105035.2998, 11105035.2998
11105035.2998, -1.0
28865399.0534, 28865399.0534, 28865399.0534, 0.3, 0.3, 0.3, 11102076.559, 11102076.559
11102076.559, 1.0
*EXPANSION, TYPE=ORTHO, ZERO=0.0
5.6e-06, 5.6e-06, 5.6e-06, -1.0
5.6e-06, 5.6e-06, 5.6e-06, 1.0
*SOLID SECTION, ELSET=E2, MATERIAL=Alloy_713LC_E2
*MATERIAL, NAME=Alloy_713LC_E3
**  ELSET VOL FRAC = 1.0
*DENSITY
0.000748533, -1.0
0.000748533, 1.0
*ELASTIC, TYPE=ENGINEERING CONSTANTS
28873091.7796, 28873091.7796, 28873091.7796, 0.3, 0.3, 0.3, 11105035.2998, 11105035.2998
11105035.2998, -1.0
28865399.0534, 28865399.0534, 28865399.0534, 0.3, 0.3, 0.3, 11102076.559, 11102076.559
11102076.559, 1.0
*EXPANSION, TYPE=ORTHO, ZERO=0.0
5.6e-06, 5.6e-06, 5.6e-06, -1.0
5.6e-06, 5.6e-06, 5.6e-06, 1.0
*SOLID SECTION, ELSET=E3, MATERIAL=Alloy_713LC_E3
*MATERIAL, NAME=Alloy_713LC_E4
**  ELSET VOL FRAC = 1.0
*DENSITY
0.000748533, -1.0
0.000748533, 1.0
*ELASTIC, TYPE=ENGINEERING CONSTANTS
28873091.7796, 28873091.7796, 28873091.7796, 0.3, 0.3, 0.3, 11105035.2998, 11105035.2998
11105035.2998, -1.0
28865399.0534, 28865399.0534, 28865399.0534, 0.3, 0.3, 0.3, 11102076.559, 11102076.559
11102076.559, 1.0
*EXPANSION, TYPE=ORTHO, ZERO=0.0
5.6e-06, 5.6e-06, 5.6e-06, -1.0
5.6e-06, 5.6e-06, 5.6e-06, 1.0
*SOLID SECTION, ELSET=E4, MATERIAL=Alloy_713LC_E4
*MATERIAL, NAME=Alloy_713LC_E5
**  ELSET VOL FRAC = 1.0
*DENSITY
0.000748533, -1.0
0.000748533, 1.0
*ELASTIC, TYPE=ENGINEERING CONSTANTS
28873091.7796, 28873091.7796, 28873091.7796, 0.3, 0.3, 0.3, 11105035.2998, 11105035.2998
11105035.2998, -1.0
28865399.0534, 28865399.0534, 28865399.0534, 0.3, 0.3, 0.3, 11102076.559, 11102076.559
11102076.559, 1.0
*EXPANSION, TYPE=ORTHO, ZERO=0.0
5.6e-06, 5.6e-06, 5.6e-06, -1.0
5.6e-06, 5.6e-06, 5.6e-06, 1.0
*SOLID SECTION, ELSET=E5, MATERIAL=Alloy_713LC_E5
*MATERIAL, NAME=Alloy_713LC_E6
**  ELSET VOL FRAC = 1.0
*DENSITY
0.000748533, -1.0
0.000748533, 1.0
*ELASTIC, TYPE=ENGINEERING CONSTANTS
28873091.7796, 28873091.7796, 28873091.7796, 0.3, 0.3, 0.3, 11105035.2998, 11105035.2998
11105035.2998, -1.0
28865399.0534, 28865399.0534, 28865399.0534, 0.3, 0.3, 0.3, 11102076.559, 11102076.559
11102076.559, 1.0
*EXPANSION, TYPE=ORTHO, ZERO=0.0
5.6e-06, 5.6e-06, 5.6e-06, -1.0
5.6e-06, 5.6e-06, 5.6e-06, 1.0
*SOLID SECTION, ELSET=E6, MATERIAL=Alloy_713LC_E6
*MATERIAL, NAME=Alloy_713LC_E7
**  ELSET VOL FRAC = 1.0
*DENSITY
0.000748533, -1.0
0.000748533, 1.0
*ELASTIC, TYPE=ENGINEERING CONSTANTS
28873091.7796, 28873091.7796, 28873091.7796, 0.3, 0.3, 0.3, 11105035.2998, 11105035.2998
11105035.2998, -1.0
28865399.0534, 28865399.0534, 28865399.0534, 0.3, 0.3, 0.3, 11102076.559, 11102076.559
11102076.559, 1.0
*EXPANSION, TYPE=ORTHO, ZERO=0.0
5.6e-06, 5.6e-06, 5.6e-06, -1.0
5.6e-06, 5.6e-06, 5.6e-06, 1.0
*SOLID SECTION, ELSET=E7, MATERIAL=Alloy_713LC_E7
*MATERIAL, NAME=Alloy_713LC_E8
**  ELSET VOL FRAC = 1.0
*DENSITY
0.000748533, -1.0
0.000748533, 1.0
*ELASTIC, TYPE=ENGINEERING CONSTANTS
28873091.7796, 28873091.7796, 28873091.7796, 0.3, 0.3, 0.3, 11105035.2998, 11105035.2998
11105035.2998, -1.0
28865399.0534, 28865399.0534, 28865399.0534, 0.3, 0.3, 0.3, 11102076.559, 11102076.559
11102076.559, 1.0
*EXPANSION, TYPE=ORTHO, ZERO=0.0
5.6e-06, 5.6e-06, 5.6e-06, -1.0
5.6e-06, 5.6e-06, 5.6e-06, 1.0
*SOLID SECTION, ELSET=E8, MATERIAL=Alloy_713LC_E8
********************************************************************************
*MATERIAL, NAME=Alloy_713LC_E9
**  ELSET VOL FRAC = 1.0
*DENSITY
0.000748533, -1.0
0.000748533, 1.0
*ELASTIC, TYPE=ENGINEERING CONSTANTS
28873091.7796, 28873091.7796, 28873091.7796, 0.3, 0.3, 0.3, 11105035.2998, 11105035.2998
11105035.2998, -1.0
28865399.0534, 28865399.0534, 28865399.0534, 0.3, 0.3, 0.3, 11102076.559, 11102076.559
11102076.559, 1.0
*EXPANSION, TYPE=ORTHO, ZERO=0.0
5.6e-06, 5.6e-06, 5.6e-06, -1.0
5.6e-06, 5.6e-06, 5.6e-06, 1.0
*SOLID SECTION, ELSET=E9, MATERIAL=Alloy_713LC_E9
*MATERIAL, NAME=Alloy_713LC_E10
**  ELSET VOL FRAC = 1.0
*DENSITY
0.000748533, -1.0
0.000748533, 1.0
*ELASTIC, TYPE=ENGINEERING CONSTANTS
28873091.7796, 28873091.7796, 28873091.7796, 0.3, 0.3, 0.3, 11105035.2998, 11105035.2998
11105035.2998, -1.0
28865399.0534, 28865399.0534, 28865399.0534, 0.3, 0.3, 0.3, 11102076.559, 11102076.559
11102076.559, 1.0
*EXPANSION, TYPE=ORTHO, ZERO=0.0
5.6e-06, 5.6e-06, 5.6e-06, -1.0
5.6e-06, 5.6e-06, 5.6e-06, 1.0
*SOLID SECTION, ELSET=E10, MATERIAL=Alloy_713LC_E10
*MATERIAL, NAME=Alloy_713LC_E11
**  ELSET VOL FRAC = 1.0
*DENSITY
0.000748533, -1.0
0.000748533, 1.0
*ELASTIC, TYPE=ENGINEERING CONSTANTS
28873091.7796, 28873091.7796, 28873091.7796, 0.3, 0.3, 0.3, 11105035.2998, 11105035.2998
11105035.2998, -1.0
28865399.0534, 28865399.0534, 28865399.0534, 0.3, 0.3, 0.3, 11102076.559, 11102076.559
11102076.559, 1.0
*EXPANSION, TYPE=ORTHO, ZERO=0.0
5.6e-06, 5.6e-06, 5.6e-06, -1.0
5.6e-06, 5.6e-06, 5.6e-06, 1.0
*SOLID SECTION, ELSET=E11, MATERIAL=Alloy_713LC_E11
*MATERIAL, NAME=Alloy_713LC_E12
**  ELSET VOL FRAC = 1.0
*DENSITY
0.000748533, -1.0
0.000748533, 1.0
*ELASTIC, TYPE=ENGINEERING CONSTANTS
28873091.7796, 28873091.7796, 28873091.7796, 0.3, 0.3, 0.3, 11105035.2998, 11105035.2998
11105035.2998, -1.0
28865399.0534, 28865399.0534, 28865399.0534, 0.3, 0.3, 0.3, 11102076.559, 11102076.559
11102076.559, 1.0
*EXPANSION, TYPE=ORTHO, ZERO=0.0
5.6e-06, 5.6e-06, 5.6e-06, -1.0
5.6e-06, 5.6e-06, 5.6e-06, 1.0
*SOLID SECTION, ELSET=E12, MATERIAL=Alloy_713LC_E12
*MATERIAL, NAME=Alloy_713LC_E13
**  ELSET VOL FRAC = 1.0
*DENSITY
0.000748533, -1.0
0.000748533, 1.0
*ELASTIC, TYPE=ENGINEERING CONSTANTS
28873091.7796, 28873091.7796, 28873091.7796, 0.3, 0.3, 0.3, 11105035.2998, 11105035.2998
11105035.2998, -1.0
28865399.0534, 28865399.0534, 28865399.0534, 0.3, 0.3, 0.3, 11102076.559, 11102076.559
11102076.559, 1.0
*EXPANSION, TYPE=ORTHO, ZERO=0.0
5.6e-06, 5.6e-06, 5.6e-06, -1.0
5.6e-06, 5.6e-06, 5.6e-06, 1.0
*SOLID SECTION, ELSET=E13, MATERIAL=Alloy_713LC_E13
*MATERIAL, NAME=Alloy_713LC_E14
**  ELSET VOL FRAC = 1.0
*DENSITY
0.000748533, -1.0
0.000748533, 1.0
*ELASTIC, TYPE=ENGINEERING CONSTANTS
28873091.7796, 28873091.7796, 28873091.7796, 0.3, 0.3, 0.3, 11105035.2998, 11105035.2998
11105035.2998, -1.0
28865399.0534, 28865399.0534, 28865399.0534, 0.3, 0.3, 0.3, 11102076.559, 11102076.559
11102076.559, 1.0
*EXPANSION, TYPE=ORTHO, ZERO=0.0
5.6e-06, 5.6e-06, 5.6e-06, -1.0
5.6e-06, 5.6e-06, 5.6e-06, 1.0
*SOLID SECTION, ELSET=E14, MATERIAL=Alloy_713LC_E14
*MATERIAL, NAME=Alloy_713LC_E15
**  ELSET VOL FRAC = 1.0
*DENSITY
0.000748533, -1.0
0.000748533, 1.0
*ELASTIC, TYPE=ENGINEERING CONSTANTS
28873091.7796, 28873091.7796, 28873091.7796, 0.3, 0.3, 0.3, 11105035.2998, 11105035.2998
11105035.2998, -1.0
28865399.0534, 28865399.0534, 28865399.0534, 0.3, 0.3, 0.3, 11102076.559, 11102076.559
11102076.559, 1.0
*EXPANSION, TYPE=ORTHO, ZERO=0.0
5.6e-06, 5.6e-06, 5.6e-06, -1.0
5.6e-06, 5.6e-06, 5.6e-06, 1.0
*SOLID SECTION, ELSET=E15, MATERIAL=Alloy_713LC_E15
*MATERIAL, NAME=Alloy_713LC_E16
**  ELSET VOL FRAC = 1.0
*DENSITY
0.000748533, -1.0
0.000748533, 1.0
*ELASTIC, TYPE=ENGINEERING CONSTANTS
28873091.7796, 28873091.7796, 28873091.7796, 0.3, 0.3, 0.3, 11105035.2998, 11105035.2998
11105035.2998, -1.0
28865399.0534, 28865399.0534, 28865399.0534, 0.3, 0.3, 0.3, 11102076.559, 11102076.559
11102076.559, 1.0
*EXPANSION, TYPE=ORTHO, ZERO=0.0
5.6e-06, 5.6e-06, 5.6e-06, -1.0
5.6e-06, 5.6e-06, 5.6e-06, 1.0
*SOLID SECTION, ELSET=E16, MATERIAL=Alloy_713LC_E16
*MATERIAL, NAME=Alloy_713LC_E17
**  ELSET VOL FRAC = 1.0
*DENSITY
0.000748533, -1.0
0.000748533, 1.0
*ELASTIC, TYPE=ENGINEERING CONSTANTS
28873091.7796, 28873091.7796, 28873091.7796, 0.3, 0.3, 0.3, 11105035.2998, 11105035.2998
11105035.2998, -1.0
28865399.0534, 28865399.0534, 28865399.0534, 0.3, 0.3, 0.3, 11102076.559, 11102076.559
11102076.559, 1.0
*EXPANSION, TYPE=ORTHO, ZERO=0.0
5.6e-06, 5.6e-06, 5.6e-06, -1.0
5.6e-06, 5.6e-06, 5.6e-06, 1.0
*SOLID SECTION, ELSET=E17, MATERIAL=Alloy_713LC_E17
*MATERIAL, NAME=Alloy_713LC_E18
**  ELSET VOL FRAC = 1.0
*DENSITY
0.000748533, -1.0
0.000748533, 1.0
*ELASTIC, TYPE=ENGINEERING CONSTANTS
28873091.7796, 28873091.7796, 28873091.7796, 0.3, 0.3, 0.3, 11105035.2998, 11105035.2998
11105035.2998, -1.0
28865399.0534, 28865399.0534, 28865399.0534, 0.3, 0.3, 0.3, 11102076.559, 11102076.559
11102076.559, 1.0
*EXPANSION, TYPE=ORTHO, ZERO=0.0
5.6e-06, 5.6e-06, 5.6e-06, -1.0
5.6e-06, 5.6e-06, 5.6e-06, 1.0
*SOLID SECTION, ELSET=E18, MATERIAL=Alloy_713LC_E18
*MATERIAL, NAME=Alloy_713LC_E19
**  ELSET VOL FRAC = 1.0
*DENSITY
0.000748533, -1.0
0.000748533, 1.0
*ELASTIC, TYPE=ENGINEERING CONSTANTS
28873091.7796, 28873091.7796, 28873091.7796, 0.3, 0.3, 0.3, 11105035.2998, 11105035.2998
11105035.2998, -1.0
28865399.0534, 28865399.0534, 28865399.0534, 0.3, 0.3, 0.3, 11102076.559, 11102076.559
11102076.559, 1.0
*EXPANSION, TYPE=ORTHO, ZERO=0.0
5.6e-06, 5.6e-06, 5.6e-06, -1.0
5.6e-06, 5.6e-06, 5.6e-06, 1.0
*SOLID SECTION, ELSET=E19, MATERIAL=Alloy_713LC_E19
*MATERIAL, NAME=Alloy_713LC_E20
**  ELSET VOL FRAC = 1.0
*DENSITY
0.000748533, -1.0
0.000748533, 1.0
*ELASTIC, TYPE=ENGINEERING CONSTANTS
28873091.7796, 28873091.7796, 28873091.7796, 0.3, 0.3, 0.3, 11105035.2998, 11105035.2998
11105035.2998, -1.0
28865399.0534, 28865399.0534, 28865399.0534, 0.3, 0.3, 0.3, 11102076.559, 11102076.559
11102076.559, 1.0
*EXPANSION, TYPE=ORTHO, ZERO=0.0
5.6e-06, 5.6e-06, 5.6e-06, -1.0
5.6e-06, 5.6e-06, 5.6e-06, 1.0
*SOLID SECTION, ELSET=E20, MATERIAL=Alloy_713LC_E20
*MATERIAL, NAME=Alloy_713LC_E21
**  ELSET VOL FRAC = 1.0
*DENSITY
0.000748533, -1.0
0.000748533, 1.0
*ELASTIC, TYPE=ENGINEERING CONSTANTS
28873091.7796, 28873091.7796, 28873091.7796, 0.3, 0.3, 0.3, 11105035.2998, 11105035.2998
11105035.2998, -1.0
28865399.0534, 28865399.0534, 28865399.0534, 0.3, 0.3, 0.3, 11102076.559, 11102076.559
11102076.559, 1.0
*EXPANSION, TYPE=ORTHO, ZERO=0.0
5.6e-06, 5.6e-06, 5.6e-06, -1.0
5.6e-06, 5.6e-06, 5.6e-06, 1.0
*SOLID SECTION, ELSET=E21, MATERIAL=Alloy_713LC_E21
*MATERIAL, NAME=Alloy_713LC_E22
**  ELSET VOL FRAC = 1.0
*DENSITY
0.000748533, -1.0
0.000748533, 1.0
*ELASTIC, TYPE=ENGINEERING CONSTANTS
28873091.7796, 28873091.7796, 28873091.7796, 0.3, 0.3, 0.3, 11105035.2998, 11105035.2998
11105035.2998, -1.0
28865399.0534, 28865399.0534, 28865399.0534, 0.3, 0.3, 0.3, 11102076.559, 11102076.559
11102076.559, 1.0
*EXPANSION, TYPE=ORTHO, ZERO=0.0
5.6e-06, 5.6e-06, 5.6e-06, -1.0
5.6e-06, 5.6e-06, 5.6e-06, 1.0
*SOLID SECTION, ELSET=E22, MATERIAL=Alloy_713LC_E22
*MATERIAL, NAME=Alloy_713LC_E23
**  ELSET VOL FRAC = 1.0
*DENSITY
0.000748533, -1.0
0.000748533, 1.0
*ELASTIC, TYPE=ENGINEERING CONSTANTS
28873091.7796, 28873091.7796, 28873091.7796, 0.3, 0.3, 0.3, 11105035.2998, 11105035.2998
11105035.2998, -1.0
28865399.0534, 28865399.0534, 28865399.0534, 0.3, 0.3, 0.3, 11102076.559, 11102076.559
11102076.559, 1.0
*EXPANSION, TYPE=ORTHO, ZERO=0.0
5.6e-06, 5.6e-06, 5.6e-06, -1.0
5.6e-06, 5.6e-06, 5.6e-06, 1.0
*SOLID SECTION, ELSET=E23, MATERIAL=Alloy_713LC_E23
*MATERIAL, NAME=Alloy_713LC_E24
**  ELSET VOL FRAC = 1.0
*DENSITY
0.000748533, -1.0
0.000748533, 1.0
*ELASTIC, TYPE=ENGINEERING CONSTANTS
28873091.7796, 28873091.7796, 28873091.7796, 0.3, 0.3, 0.3, 11105035.2998, 11105035.2998
11105035.2998, -1.0
28865399.0534, 28865399.0534, 28865399.0534, 0.3, 0.3, 0.3, 11102076.559, 11102076.559
11102076.559, 1.0
*EXPANSION, TYPE=ORTHO, ZERO=0.0
5.6e-06, 5.6e-06, 5.6e-06, -1.0
5.6e-06, 5.6e-06, 5.6e-06, 1.0
*SOLID SECTION, ELSET=E24, MATERIAL=Alloy_713LC_E24
********************************************************************************
*MATERIAL, NAME=Alloy_713LC_E25
**  ELSET VOL FRAC = 1.0
*DENSITY
0.000748533, -1.0
0.000748533, 1.0
*ELASTIC, TYPE=ENGINEERING CONSTANTS
28873091.7796, 28873091.7796, 28873091.7796, 0.3, 0.3, 0.3, 11105035.2998, 11105035.2998
11105035.2998, -1.0
28865399.0534, 28865399.0534, 28865399.0534, 0.3, 0.3, 0.3, 11102076.559, 11102076.559
11102076.559, 1.0
*EXPANSION, TYPE=ORTHO, ZERO=0.0
5.6e-06, 5.6e-06, 5.6e-06, -1.0
5.6e-06, 5.6e-06, 5.6e-06, 1.0
*SOLID SECTION, ELSET=E25, MATERIAL=Alloy_713LC_E25
*MATERIAL, NAME=Alloy_713LC_E26
**  ELSET VOL FRAC = 1.0
*DENSITY
0.000748533, -1.0
0.000748533, 1.0
*ELASTIC, TYPE=ENGINEERING CONSTANTS
28873091.7796, 28873091.7796, 28873091.7796, 0.3, 0.3, 0.3, 11105035.2998, 11105035.2998
11105035.2998, -1.0
28865399.0534, 28865399.0534, 28865399.0534, 0.3, 0.3, 0.3, 11102076.559, 11102076.559
11102076.559, 1.0
*EXPANSION, TYPE=ORTHO, ZERO=0.0
5.6e-06, 5.6e-06, 5.6e-06, -1.0
5.6e-06, 5.6e-06, 5.6e-06, 1.0
*SOLID SECTION, ELSET=E26, MATERIAL=Alloy_713LC_E26
*MATERIAL, NAME=Alloy_713LC_E27
**  ELSET VOL FRAC = 1.0
*DENSITY
0.000748533, -1.0
0.000748533, 1.0
*ELASTIC, TYPE=ENGINEERING CONSTANTS
28873091.7796, 28873091.7796, 28873091.7796, 0.3, 0.3, 0.3, 11105035.2998, 11105035.2998
11105035.2998, -1.0
28865399.0534, 28865399.0534, 28865399.0534, 0.3, 0.3, 0.3, 11102076.559, 11102076.559
11102076.559, 1.0
*EXPANSION, TYPE=ORTHO, ZERO=0.0
5.6e-06, 5.6e-06, 5.6e-06, -1.0
5.6e-06, 5.6e-06, 5.6e-06, 1.0
*SOLID SECTION, ELSET=E27, MATERIAL=Alloy_713LC_E27
*MATERIAL, NAME=Alloy_713LC_E28
**  ELSET VOL FRAC = 1.0
*DENSITY
0.000748533, -1.0
0.000748533, 1.0
*ELASTIC, TYPE=ENGINEERING CONSTANTS
28873091.7796, 28873091.7796, 28873091.7796, 0.3, 0.3, 0.3, 11105035.2998, 11105035.2998
11105035.2998, -1.0
28865399.0534, 28865399.0534, 28865399.0534, 0.3, 0.3, 0.3, 11102076.559, 11102076.559
11102076.559, 1.0
*EXPANSION, TYPE=ORTHO, ZERO=0.0
5.6e-06, 5.6e-06, 5.6e-06, -1.0
5.6e-06, 5.6e-06, 5.6e-06, 1.0
*SOLID SECTION, ELSET=E28, MATERIAL=Alloy_713LC_E28
*MATERIAL, NAME=Alloy_713LC_E29
**  ELSET VOL FRAC = 1.0
*DENSITY
0.000748533, -1.0
0.000748533, 1.0
*ELASTIC, TYPE=ENGINEERING CONSTANTS
28873091.7796, 28873091.7796, 28873091.7796, 0.3, 0.3, 0.3, 11105035.2998, 11105035.2998
11105035.2998, -1.0
28865399.0534, 28865399.0534, 28865399.0534, 0.3, 0.3, 0.3, 11102076.559, 11102076.559
11102076.559, 1.0
*EXPANSION, TYPE=ORTHO, ZERO=0.0
5.6e-06, 5.6e-06, 5.6e-06, -1.0
5.6e-06, 5.6e-06, 5.6e-06, 1.0
*SOLID SECTION, ELSET=E29, MATERIAL=Alloy_713LC_E29
*MATERIAL, NAME=Alloy_713LC_E30
**  ELSET VOL FRAC = 1.0
*DENSITY
0.000748533, -1.0
0.000748533, 1.0
*ELASTIC, TYPE=ENGINEERING CONSTANTS
28873091.7796, 28873091.7796, 28873091.7796, 0.3, 0.3, 0.3, 11105035.2998, 11105035.2998
11105035.2998, -1.0
28865399.0534, 28865399.0534, 28865399.0534, 0.3, 0.3, 0.3, 11102076.559, 11102076.559
11102076.559, 1.0
*EXPANSION, TYPE=ORTHO, ZERO=0.0
5.6e-06, 5.6e-06, 5.6e-06, -1.0
5.6e-06, 5.6e-06, 5.6e-06, 1.0
*SOLID SECTION, ELSET=E30, MATERIAL=Alloy_713LC_E30
*MATERIAL, NAME=Alloy_713LC_E31
**  ELSET VOL FRAC = 1.0
*DENSITY
0.000748533, -1.0
0.000748533, 1.0
*ELASTIC, TYPE=ENGINEERING CONSTANTS
28873091.7796, 28873091.7796, 28873091.7796, 0.3, 0.3, 0.3, 11105035.2998, 11105035.2998
11105035.2998, -1.0
28865399.0534, 28865399.0534, 28865399.0534, 0.3, 0.3, 0.3, 11102076.559, 11102076.559
11102076.559, 1.0
*EXPANSION, TYPE=ORTHO, ZERO=0.0
5.6e-06, 5.6e-06, 5.6e-06, -1.0
5.6e-06, 5.6e-06, 5.6e-06, 1.0
*SOLID SECTION, ELSET=E31, MATERIAL=Alloy_713LC_E31
*MATERIAL, NAME=Alloy_713LC_E32
**  ELSET VOL FRAC = 1.0
*DENSITY
0.000748533, -1.0
0.000748533, 1.0
*ELASTIC, TYPE=ENGINEERING CONSTANTS
28873091.7796, 28873091.7796, 28873091.7796, 0.3, 0.3, 0.3, 11105035.2998, 11105035.2998
11105035.2998, -1.0
28865399.0534, 28865399.0534, 28865399.0534, 0.3, 0.3, 0.3, 11102076.559, 11102076.559
11102076.559, 1.0
*EXPANSION, TYPE=ORTHO, ZERO=0.0
5.6e-06, 5.6e-06, 5.6e-06, -1.0
5.6e-06, 5.6e-06, 5.6e-06, 1.0
*SOLID SECTION, ELSET=E32, MATERIAL=Alloy_713LC_E32
*MATERIAL, NAME=Alloy_713LC_E33
**  ELSET VOL FRAC = 1.0
*DENSITY
0.000748533, -1.0
0.000748533, 1.0
*ELASTIC, TYPE=ENGINEERING CONSTANTS
28873091.7796, 28873091.7796, 28873091.7796, 0.3, 0.3, 0.3, 11105035.2998, 11105035.2998
11105035.2998, -1.0
28865399.0534, 28865399.0534, 28865399.0534, 0.3, 0.3, 0.3, 11102076.559, 11102076.559
11102076.559, 1.0
*EXPANSION, TYPE=ORTHO, ZERO=0.0
5.6e-06, 5.6e-06, 5.6e-06, -1.0
5.6e-06, 5.6e-06, 5.6e-06, 1.0
*SOLID SECTION, ELSET=E33, MATERIAL=Alloy_713LC_E33
*MATERIAL, NAME=Alloy_713LC_E34
**  ELSET VOL FRAC = 1.0
*DENSITY
0.000748533, -1.0
0.000748533, 1.0
*ELASTIC, TYPE=ENGINEERING CONSTANTS
28873091.7796, 28873091.7796, 28873091.7796, 0.3, 0.3, 0.3, 11105035.2998, 11105035.2998
11105035.2998, -1.0
28865399.0534, 28865399.0534, 28865399.0534, 0.3, 0.3, 0.3, 11102076.559, 11102076.559
11102076.559, 1.0
*EXPANSION, TYPE=ORTHO, ZERO=0.0
5.6e-06, 5.6e-06, 5.6e-06, -1.0
5.6e-06, 5.6e-06, 5.6e-06, 1.0
*SOLID SECTION, ELSET=E34, MATERIAL=Alloy_713LC_E34
*MATERIAL, NAME=Alloy_713LC_E35
**  ELSET VOL FRAC = 1.0
*DENSITY
0.000748533, -1.0
0.000748533, 1.0
*ELASTIC, TYPE=ENGINEERING CONSTANTS
28873091.7796, 28873091.7796, 28873091.7796, 0.3, 0.3, 0.3, 11105035.2998, 11105035.2998
11105035.2998, -1.0
28865399.0534, 28865399.0534, 28865399.0534, 0.3, 0.3, 0.3, 11102076.559, 11102076.559
11102076.559, 1.0
*EXPANSION, TYPE=ORTHO, ZERO=0.0
5.6e-06, 5.6e-06, 5.6e-06, -1.0
5.6e-06, 5.6e-06, 5.6e-06, 1.0
*SOLID SECTION, ELSET=E35, MATERIAL=Alloy_713LC_E35
*MATERIAL, NAME=Alloy_713LC_E36
**  ELSET VOL FRAC = 1.0
*DENSITY
0.000748533, -1.0
0.000748533, 1.0
*ELASTIC, TYPE=ENGINEERING CONSTANTS
28873091.7796, 28873091.7796, 28873091.7796, 0.3, 0.3, 0.3, 11105035.2998, 11105035.2998
11105035.2998, -1.0
28865399.0534, 28865399.0534, 28865399.0534, 0.3, 0.3, 0.3, 11102076.559, 11102076.559
11102076.559, 1.0
*EXPANSION, TYPE=ORTHO, ZERO=0.0
5.6e-06, 5.6e-06, 5.6e-06, -1.0
5.6e-06, 5.6e-06, 5.6e-06, 1.0
*SOLID SECTION, ELSET=E36, MATERIAL=Alloy_713LC_E36
*MATERIAL, NAME=Alloy_713LC_E37
**  ELSET VOL FRAC = 1.0
*DENSITY
0.000748533, -1.0
0.000748533, 1.0
*ELASTIC, TYPE=ENGINEERING CONSTANTS
28873091.7796, 28873091.7796, 28873091.7796, 0.3, 0.3, 0.3, 11105035.2998, 11105035.2998
11105035.2998, -1.0
28865399.0534, 28865399.0534, 28865399.0534, 0.3, 0.3, 0.3, 11102076.559, 11102076.559
11102076.559, 1.0
*EXPANSION, TYPE=ORTHO, ZERO=0.0
5.6e-06, 5.6e-06, 5.6e-06, -1.0
5.6e-06, 5.6e-06, 5.6e-06, 1.0
*SOLID SECTION, ELSET=E37, MATERIAL=Alloy_713LC_E37
*MATERIAL, NAME=Alloy_713LC_E38
**  ELSET VOL FRAC = 1.0
*DENSITY
0.000748533, -1.0
0.000748533, 1.0
*ELASTIC, TYPE=ENGINEERING CONSTANTS
28873091.7796, 28873091.7796, 28873091.7796, 0.3, 0.3, 0.3, 11105035.2998, 11105035.2998
11105035.2998, -1.0
28865399.0534, 28865399.0534, 28865399.0534, 0.3, 0.3, 0.3, 11102076.559, 11102076.559
11102076.559, 1.0
*EXPANSION, TYPE=ORTHO, ZERO=0.0
5.6e-06, 5.6e-06, 5.6e-06, -1.0
5.6e-06, 5.6e-06, 5.6e-06, 1.0
*SOLID SECTION, ELSET=E38, MATERIAL=Alloy_713LC_E38
*MATERIAL, NAME=Alloy_713LC_E39
**  ELSET VOL FRAC = 1.0
*DENSITY
0.000748533, -1.0
0.000748533, 1.0
*ELASTIC, TYPE=ENGINEERING CONSTANTS
28873091.7796, 28873091.7796, 28873091.7796, 0.3, 0.3, 0.3, 11105035.2998, 11105035.2998
11105035.2998, -1.0
28865399.0534, 28865399.0534, 28865399.0534, 0.3, 0.3, 0.3, 11102076.559, 11102076.559
11102076.559, 1.0
*EXPANSION, TYPE=ORTHO, ZERO=0.0
5.6e-06, 5.6e-06, 5.6e-06, -1.0
5.6e-06, 5.6e-06, 5.6e-06, 1.0
*SOLID SECTION, ELSET=E39, MATERIAL=Alloy_713LC_E39
*MATERIAL, NAME=Alloy_713LC_E40
**  ELSET VOL FRAC = 1.0
*DENSITY
0.000748533, -1.0
0.000748533, 1.0
*ELASTIC, TYPE=ENGINEERING CONSTANTS
28873091.7796, 28873091.7796, 28873091.7796, 0.3, 0.3, 0.3, 11105035.2998, 11105035.2998
11105035.2998, -1.0
28865399.0534, 28865399.0534, 28865399.0534, 0.3, 0.3, 0.3, 11102076.559, 11102076.559
11102076.559, 1.0
*EXPANSION, TYPE=ORTHO, ZERO=0.0
5.6e-06, 5.6e-06, 5.6e-06, -1.0
5.6e-06, 5.6e-06, 5.6e-06, 1.0
*SOLID SECTION, ELSET=E40, MATERIAL=Alloy_713LC_E40
********************************************************************************
********************************************************************************
** <BEGIN> ~-~~-~~-~~-~~-~ XHA_A HINGE LINE NODE SET
*NSET, NSET=XHA_A
92, 96, 100, 104, 108, 112, 116, 120, 
124
** <END>   ~-~~-~~-~~-~~-~ XHA_A HINGE LINE NODE SET
** <BEGIN> ~-~~-~~-~~-~~-~ S_XHA_A_LINE HINGE SLAVE SURFACE (LINE)
*SURFACE, NAME=S_XHA_A_LINE, TYPE=NODE
XHA_A
** <END>   ~-~~-~~-~~-~~-~ S_XHA_A_LINE HINGE SLAVE SURFACE (LINE)
** <BEGIN> ~-~~-~~-~~-~~-~ M_XHA_X_SURF HINGE MASTER SURFACE
*SURFACE, NAME=M_XHA_X_SURF, TYPE=ELEMENT
1, S1
3, S1
5, S1
7, S1
** <END>   ~-~~-~~-~~-~~-~ M_XHA_X_SURF HINGE MASTER SURFACE
*TIE 
S_XHA_A_LINE, M_XHA_X_SURF
********************************************************************************
** <BEGIN> ~-~~-~~-~~-~~-~ ARB_A RIGID JOIN NODE SET
*NSET, NSET=ARB_A
210, 211, 212, 213, 214, 215, 216, 217, 
218, 219, 220, 221, 222, 223, 224, 225, 
226, 227, 228, 229, 230, 231, 232, 233, 
234, 235, 236, 237, 238, 239, 240, 241, 
242, 243, 244, 245, 246
** <END>   ~-~~-~~-~~-~~-~ ARB_A RIGID JOIN NODE SET
** <BEGIN> ~-~~-~~-~~-~~-~ ARB_B RIGID JOIN NODE SET
*NSET, NSET=ARB_B
247, 248, 249, 250, 251, 252, 253, 254, 
255, 256, 257, 258, 259, 260, 261, 262, 
263, 264, 265, 266, 267, 268, 269, 270, 
271, 272, 273, 274, 275, 276, 277, 278, 
279, 280, 281, 282, 283
** <END>   ~-~~-~~-~~-~~-~ ARB_B RIGID JOIN NODE SET
*NSET, NSET=ARB
ARB_A, ARB_B
*RIGID BODY, NSET=ARB
********************************************************************************
*INITIAL CONDITIONS, TYPE=TEMPERATURE
NALL, 0.0
********************************************************************************
*BOUNDARY
5, 1
5, 2
5, 3
8, 1
8, 2
8, 3
13, 1
13, 2
13, 3
16, 1
16, 2
16, 3
21, 1
21, 2
21, 3
24, 1
24, 2
24, 3
29, 1
29, 2
** ... 154 like lines cut
*STEP
*STATIC
*DLOAD
17, P4, -10000.0
18, P4, -10000.0
19, P4, -10000.0
20, P4, -10000.0
21, P4, -10000.0
22, P4, -10000.0
23, P4, -10000.0
24, P4, -10000.0
26, P2, 5625.0
28, P2, 1875.0
34, P2, 1875.0
36, P2, 625.0
29, P1, 1875.0
31, P1, 5625.0
37, P1, 625.0
39, P1, 1875.0
********************************************************************************
*NODE PRINT, NSET=NALL
U
*NODE FILE, OUTPUT=3D
U
*EL PRINT, ELSET=EALL
S
*EL FILE, OUTPUT=3D
S
*END STEP
********************************************************************************
