*HEADING
MODEL DYNAMICALLY GENERATED PLAYGROUND_HINGE_X1.inp
** THIS MESH WAS GENERATED ON Friday, April 19th, 2013 at 10:31:06 AM
********************************************************************************
**   Pressure = -10000.0
**   matty = Alloy_713LC
********************************************************************************
** <BEGIN> ~-~~-~~-~~-~~-~ NX_MESH NODES
*NODE, NSET=NX_MESH
1, -0.5, -0.5, 0.0
2, -0.5, -0.5, 1.0
3, -0.5, -0.5, 2.0
4, -0.5, -0.5, 3.0
5, -0.5, -0.5, 4.0
6, -0.5, -0.25, 0.0
7, -0.5, -0.25, 2.0
8, -0.5, -0.25, 4.0
9, -0.5, 0.0, 0.0
10, -0.5, 0.0, 1.0
11, -0.5, 0.0, 2.0
12, -0.5, 0.0, 3.0
13, -0.5, 0.0, 4.0
14, -0.5, 0.25, 0.0
15, -0.5, 0.25, 2.0
16, -0.5, 0.25, 4.0
17, -0.5, 0.5, 0.0
18, -0.5, 0.5, 1.0
19, -0.5, 0.5, 2.0
20, -0.5, 0.5, 3.0
** ... 69 like lines cut
** <END> ~-~~-~~-~~-~~-~ NX_MESH NODES
** <BEGIN> ~-~~-~~-~~-~~-~ NA_MESH NODES
*NODE, NSET=NA_MESH
90, 0.0, -0.5, -0.5
91, 0.0, -0.5, -0.25
92, 0.0, -0.5, 0.0
93, 0.0, -0.5, 0.25
94, 0.0, -0.5, 0.5
95, 0.0, -0.25, -0.5
96, 0.0, -0.25, 0.0
97, 0.0, -0.25, 0.5
98, 0.0, 0.0, -0.5
99, 0.0, 0.0, -0.25
100, 0.0, 0.0, 0.0
101, 0.0, 0.0, 0.25
102, 0.0, 0.0, 0.5
103, 0.0, 0.25, -0.5
104, 0.0, 0.25, 0.0
105, 0.0, 0.25, 0.5
106, 0.0, 0.5, -0.5
107, 0.0, 0.5, -0.25
108, 0.0, 0.5, 0.0
109, 0.0, 0.5, 0.25
** ... 69 like lines cut
** <END> ~-~~-~~-~~-~~-~ NA_MESH NODES
*NSET, NSET=NALL
NX_MESH, NA_MESH
** <BEGIN> ~-~~-~~-~~-~~-~ EX_MESH ELEMENTS
*ELEMENT, TYPE=C3D20R, ELSET=E1
1, 1, 35, 43, 9, 3, 37, 45, 11, 22, 40, 27, 6, 
23, 41, 28, 7, 2, 36, 44, 10
*ELEMENT, TYPE=C3D20R, ELSET=E2
2, 3, 37, 45, 11, 5, 39, 47, 13, 23, 41, 28, 7, 
24, 42, 29, 8, 4, 38, 46, 12
*ELEMENT, TYPE=C3D20R, ELSET=E3
3, 9, 43, 51, 17, 11, 45, 53, 19, 27, 48, 32, 14, 
28, 49, 33, 15, 10, 44, 52, 18
*ELEMENT, TYPE=C3D20R, ELSET=E4
4, 11, 45, 53, 19, 13, 47, 55, 21, 28, 49, 33, 15, 
29, 50, 34, 16, 12, 46, 54, 20
*ELEMENT, TYPE=C3D20R, ELSET=E5
5, 35, 69, 77, 43, 37, 71, 79, 45, 56, 74, 61, 40, 
57, 75, 62, 41, 36, 70, 78, 44
*ELEMENT, TYPE=C3D20R, ELSET=E6
6, 37, 71, 79, 45, 39, 73, 81, 47, 57, 75, 62, 41, 
58, 76, 63, 42, 38, 72, 80, 46
*ELEMENT, TYPE=C3D20R, ELSET=E7
7, 43, 77, 85, 51, 45, 79, 87, 53, 61, 82, 66, 48, 
62, 83, 67, 49, 44, 78, 86, 52
*ELEMENT, TYPE=C3D20R, ELSET=E8
8, 45, 79, 87, 53, 47, 81, 89, 55, 62, 83, 67, 49, 
63, 84, 68, 50, 46, 80, 88, 54
** <END> ~-~~-~~-~~-~~-~ EX_MESH ELEMENTS
** <BEGIN> ~-~~-~~-~~-~~-~ EA_MESH ELEMENTS
*ELEMENT, TYPE=C3D20R, ELSET=E9
9, 90, 124, 132, 98, 92, 126, 134, 100, 111, 129, 116, 95, 
112, 130, 117, 96, 91, 125, 133, 99
*ELEMENT, TYPE=C3D20R, ELSET=E10
10, 92, 126, 134, 100, 94, 128, 136, 102, 112, 130, 117, 96, 
113, 131, 118, 97, 93, 127, 135, 101
*ELEMENT, TYPE=C3D20R, ELSET=E11
11, 98, 132, 140, 106, 100, 134, 142, 108, 116, 137, 121, 103, 
117, 138, 122, 104, 99, 133, 141, 107
*ELEMENT, TYPE=C3D20R, ELSET=E12
12, 100, 134, 142, 108, 102, 136, 144, 110, 117, 138, 122, 104, 
118, 139, 123, 105, 101, 135, 143, 109
*ELEMENT, TYPE=C3D20R, ELSET=E13
13, 124, 158, 166, 132, 126, 160, 168, 134, 145, 163, 150, 129, 
146, 164, 151, 130, 125, 159, 167, 133
*ELEMENT, TYPE=C3D20R, ELSET=E14
14, 126, 160, 168, 134, 128, 162, 170, 136, 146, 164, 151, 130, 
147, 165, 152, 131, 127, 161, 169, 135
*ELEMENT, TYPE=C3D20R, ELSET=E15
15, 132, 166, 174, 140, 134, 168, 176, 142, 150, 171, 155, 137, 
151, 172, 156, 138, 133, 167, 175, 141
*ELEMENT, TYPE=C3D20R, ELSET=E16
16, 134, 168, 176, 142, 136, 170, 178, 144, 151, 172, 156, 138, 
152, 173, 157, 139, 135, 169, 177, 143
** <END> ~-~~-~~-~~-~~-~ EA_MESH ELEMENTS
*ELSET, ELSET=EALL
1, 2, 3, 4, 5, 6, 7, 8, 9, 10, 11, 12, 13
14, 15, 16
********************************************************************************
*MATERIAL, NAME=Alloy_713LC_E1
**  ELSET VOL FRAC = 1.0
*DENSITY
0.000748533, -1.0
0.000748533, 1.0
*ELASTIC, TYPE=ENGINEERING CONSTANTS
28873091.7796, 28873091.7796, 28873091.7796, 0.3, 0.3, 0.3, 11105035.2998, 11105035.2998
11105035.2998, -1.0
28865399.0534, 28865399.0534, 28865399.0534, 0.3, 0.3, 0.3, 11102076.559, 11102076.559
11102076.559, 1.0
*EXPANSION, TYPE=ORTHO, ZERO=0.0
5.6e-06, 5.6e-06, 5.6e-06, -1.0
5.6e-06, 5.6e-06, 5.6e-06, 1.0
*SOLID SECTION, ELSET=E1, MATERIAL=Alloy_713LC_E1
*MATERIAL, NAME=Alloy_713LC_E2
**  ELSET VOL FRAC = 1.0
*DENSITY
0.000748533, -1.0
0.000748533, 1.0
*ELASTIC, TYPE=ENGINEERING CONSTANTS
28873091.7796, 28873091.7796, 28873091.7796, 0.3, 0.3, 0.3, 11105035.2998, 11105035.2998
11105035.2998, -1.0
28865399.0534, 28865399.0534, 28865399.0534, 0.3, 0.3, 0.3, 11102076.559, 11102076.559
11102076.559, 1.0
*EXPANSION, TYPE=ORTHO, ZERO=0.0
5.6e-06, 5.6e-06, 5.6e-06, -1.0
5.6e-06, 5.6e-06, 5.6e-06, 1.0
*SOLID SECTION, ELSET=E2, MATERIAL=Alloy_713LC_E2
*MATERIAL, NAME=Alloy_713LC_E3
**  ELSET VOL FRAC = 1.0
*DENSITY
0.000748533, -1.0
0.000748533, 1.0
*ELASTIC, TYPE=ENGINEERING CONSTANTS
28873091.7796, 28873091.7796, 28873091.7796, 0.3, 0.3, 0.3, 11105035.2998, 11105035.2998
11105035.2998, -1.0
28865399.0534, 28865399.0534, 28865399.0534, 0.3, 0.3, 0.3, 11102076.559, 11102076.559
11102076.559, 1.0
*EXPANSION, TYPE=ORTHO, ZERO=0.0
5.6e-06, 5.6e-06, 5.6e-06, -1.0
5.6e-06, 5.6e-06, 5.6e-06, 1.0
*SOLID SECTION, ELSET=E3, MATERIAL=Alloy_713LC_E3
*MATERIAL, NAME=Alloy_713LC_E4
**  ELSET VOL FRAC = 1.0
*DENSITY
0.000748533, -1.0
0.000748533, 1.0
*ELASTIC, TYPE=ENGINEERING CONSTANTS
28873091.7796, 28873091.7796, 28873091.7796, 0.3, 0.3, 0.3, 11105035.2998, 11105035.2998
11105035.2998, -1.0
28865399.0534, 28865399.0534, 28865399.0534, 0.3, 0.3, 0.3, 11102076.559, 11102076.559
11102076.559, 1.0
*EXPANSION, TYPE=ORTHO, ZERO=0.0
5.6e-06, 5.6e-06, 5.6e-06, -1.0
5.6e-06, 5.6e-06, 5.6e-06, 1.0
*SOLID SECTION, ELSET=E4, MATERIAL=Alloy_713LC_E4
*MATERIAL, NAME=Alloy_713LC_E5
**  ELSET VOL FRAC = 1.0
*DENSITY
0.000748533, -1.0
0.000748533, 1.0
*ELASTIC, TYPE=ENGINEERING CONSTANTS
28873091.7796, 28873091.7796, 28873091.7796, 0.3, 0.3, 0.3, 11105035.2998, 11105035.2998
11105035.2998, -1.0
28865399.0534, 28865399.0534, 28865399.0534, 0.3, 0.3, 0.3, 11102076.559, 11102076.559
11102076.559, 1.0
*EXPANSION, TYPE=ORTHO, ZERO=0.0
5.6e-06, 5.6e-06, 5.6e-06, -1.0
5.6e-06, 5.6e-06, 5.6e-06, 1.0
*SOLID SECTION, ELSET=E5, MATERIAL=Alloy_713LC_E5
*MATERIAL, NAME=Alloy_713LC_E6
**  ELSET VOL FRAC = 1.0
*DENSITY
0.000748533, -1.0
0.000748533, 1.0
*ELASTIC, TYPE=ENGINEERING CONSTANTS
28873091.7796, 28873091.7796, 28873091.7796, 0.3, 0.3, 0.3, 11105035.2998, 11105035.2998
11105035.2998, -1.0
28865399.0534, 28865399.0534, 28865399.0534, 0.3, 0.3, 0.3, 11102076.559, 11102076.559
11102076.559, 1.0
*EXPANSION, TYPE=ORTHO, ZERO=0.0
5.6e-06, 5.6e-06, 5.6e-06, -1.0
5.6e-06, 5.6e-06, 5.6e-06, 1.0
*SOLID SECTION, ELSET=E6, MATERIAL=Alloy_713LC_E6
*MATERIAL, NAME=Alloy_713LC_E7
**  ELSET VOL FRAC = 1.0
*DENSITY
0.000748533, -1.0
0.000748533, 1.0
*ELASTIC, TYPE=ENGINEERING CONSTANTS
28873091.7796, 28873091.7796, 28873091.7796, 0.3, 0.3, 0.3, 11105035.2998, 11105035.2998
11105035.2998, -1.0
28865399.0534, 28865399.0534, 28865399.0534, 0.3, 0.3, 0.3, 11102076.559, 11102076.559
11102076.559, 1.0
*EXPANSION, TYPE=ORTHO, ZERO=0.0
5.6e-06, 5.6e-06, 5.6e-06, -1.0
5.6e-06, 5.6e-06, 5.6e-06, 1.0
*SOLID SECTION, ELSET=E7, MATERIAL=Alloy_713LC_E7
*MATERIAL, NAME=Alloy_713LC_E8
**  ELSET VOL FRAC = 1.0
*DENSITY
0.000748533, -1.0
0.000748533, 1.0
*ELASTIC, TYPE=ENGINEERING CONSTANTS
28873091.7796, 28873091.7796, 28873091.7796, 0.3, 0.3, 0.3, 11105035.2998, 11105035.2998
11105035.2998, -1.0
28865399.0534, 28865399.0534, 28865399.0534, 0.3, 0.3, 0.3, 11102076.559, 11102076.559
11102076.559, 1.0
*EXPANSION, TYPE=ORTHO, ZERO=0.0
5.6e-06, 5.6e-06, 5.6e-06, -1.0
5.6e-06, 5.6e-06, 5.6e-06, 1.0
*SOLID SECTION, ELSET=E8, MATERIAL=Alloy_713LC_E8
********************************************************************************
*MATERIAL, NAME=Alloy_713LC_E9
**  ELSET VOL FRAC = 1.0
*DENSITY
0.000748533, -1.0
0.000748533, 1.0
*ELASTIC, TYPE=ENGINEERING CONSTANTS
28873091.7796, 28873091.7796, 28873091.7796, 0.3, 0.3, 0.3, 11105035.2998, 11105035.2998
11105035.2998, -1.0
28865399.0534, 28865399.0534, 28865399.0534, 0.3, 0.3, 0.3, 11102076.559, 11102076.559
11102076.559, 1.0
*EXPANSION, TYPE=ORTHO, ZERO=0.0
5.6e-06, 5.6e-06, 5.6e-06, -1.0
5.6e-06, 5.6e-06, 5.6e-06, 1.0
*SOLID SECTION, ELSET=E9, MATERIAL=Alloy_713LC_E9
*MATERIAL, NAME=Alloy_713LC_E10
**  ELSET VOL FRAC = 1.0
*DENSITY
0.000748533, -1.0
0.000748533, 1.0
*ELASTIC, TYPE=ENGINEERING CONSTANTS
28873091.7796, 28873091.7796, 28873091.7796, 0.3, 0.3, 0.3, 11105035.2998, 11105035.2998
11105035.2998, -1.0
28865399.0534, 28865399.0534, 28865399.0534, 0.3, 0.3, 0.3, 11102076.559, 11102076.559
11102076.559, 1.0
*EXPANSION, TYPE=ORTHO, ZERO=0.0
5.6e-06, 5.6e-06, 5.6e-06, -1.0
5.6e-06, 5.6e-06, 5.6e-06, 1.0
*SOLID SECTION, ELSET=E10, MATERIAL=Alloy_713LC_E10
*MATERIAL, NAME=Alloy_713LC_E11
**  ELSET VOL FRAC = 1.0
*DENSITY
0.000748533, -1.0
0.000748533, 1.0
*ELASTIC, TYPE=ENGINEERING CONSTANTS
28873091.7796, 28873091.7796, 28873091.7796, 0.3, 0.3, 0.3, 11105035.2998, 11105035.2998
11105035.2998, -1.0
28865399.0534, 28865399.0534, 28865399.0534, 0.3, 0.3, 0.3, 11102076.559, 11102076.559
11102076.559, 1.0
*EXPANSION, TYPE=ORTHO, ZERO=0.0
5.6e-06, 5.6e-06, 5.6e-06, -1.0
5.6e-06, 5.6e-06, 5.6e-06, 1.0
*SOLID SECTION, ELSET=E11, MATERIAL=Alloy_713LC_E11
*MATERIAL, NAME=Alloy_713LC_E12
**  ELSET VOL FRAC = 1.0
*DENSITY
0.000748533, -1.0
0.000748533, 1.0
*ELASTIC, TYPE=ENGINEERING CONSTANTS
28873091.7796, 28873091.7796, 28873091.7796, 0.3, 0.3, 0.3, 11105035.2998, 11105035.2998
11105035.2998, -1.0
28865399.0534, 28865399.0534, 28865399.0534, 0.3, 0.3, 0.3, 11102076.559, 11102076.559
11102076.559, 1.0
*EXPANSION, TYPE=ORTHO, ZERO=0.0
5.6e-06, 5.6e-06, 5.6e-06, -1.0
5.6e-06, 5.6e-06, 5.6e-06, 1.0
*SOLID SECTION, ELSET=E12, MATERIAL=Alloy_713LC_E12
*MATERIAL, NAME=Alloy_713LC_E13
**  ELSET VOL FRAC = 1.0
*DENSITY
0.000748533, -1.0
0.000748533, 1.0
*ELASTIC, TYPE=ENGINEERING CONSTANTS
28873091.7796, 28873091.7796, 28873091.7796, 0.3, 0.3, 0.3, 11105035.2998, 11105035.2998
11105035.2998, -1.0
28865399.0534, 28865399.0534, 28865399.0534, 0.3, 0.3, 0.3, 11102076.559, 11102076.559
11102076.559, 1.0
*EXPANSION, TYPE=ORTHO, ZERO=0.0
5.6e-06, 5.6e-06, 5.6e-06, -1.0
5.6e-06, 5.6e-06, 5.6e-06, 1.0
*SOLID SECTION, ELSET=E13, MATERIAL=Alloy_713LC_E13
*MATERIAL, NAME=Alloy_713LC_E14
**  ELSET VOL FRAC = 1.0
*DENSITY
0.000748533, -1.0
0.000748533, 1.0
*ELASTIC, TYPE=ENGINEERING CONSTANTS
28873091.7796, 28873091.7796, 28873091.7796, 0.3, 0.3, 0.3, 11105035.2998, 11105035.2998
11105035.2998, -1.0
28865399.0534, 28865399.0534, 28865399.0534, 0.3, 0.3, 0.3, 11102076.559, 11102076.559
11102076.559, 1.0
*EXPANSION, TYPE=ORTHO, ZERO=0.0
5.6e-06, 5.6e-06, 5.6e-06, -1.0
5.6e-06, 5.6e-06, 5.6e-06, 1.0
*SOLID SECTION, ELSET=E14, MATERIAL=Alloy_713LC_E14
*MATERIAL, NAME=Alloy_713LC_E15
**  ELSET VOL FRAC = 1.0
*DENSITY
0.000748533, -1.0
0.000748533, 1.0
*ELASTIC, TYPE=ENGINEERING CONSTANTS
28873091.7796, 28873091.7796, 28873091.7796, 0.3, 0.3, 0.3, 11105035.2998, 11105035.2998
11105035.2998, -1.0
28865399.0534, 28865399.0534, 28865399.0534, 0.3, 0.3, 0.3, 11102076.559, 11102076.559
11102076.559, 1.0
*EXPANSION, TYPE=ORTHO, ZERO=0.0
5.6e-06, 5.6e-06, 5.6e-06, -1.0
5.6e-06, 5.6e-06, 5.6e-06, 1.0
*SOLID SECTION, ELSET=E15, MATERIAL=Alloy_713LC_E15
*MATERIAL, NAME=Alloy_713LC_E16
**  ELSET VOL FRAC = 1.0
*DENSITY
0.000748533, -1.0
0.000748533, 1.0
*ELASTIC, TYPE=ENGINEERING CONSTANTS
28873091.7796, 28873091.7796, 28873091.7796, 0.3, 0.3, 0.3, 11105035.2998, 11105035.2998
11105035.2998, -1.0
28865399.0534, 28865399.0534, 28865399.0534, 0.3, 0.3, 0.3, 11102076.559, 11102076.559
11102076.559, 1.0
*EXPANSION, TYPE=ORTHO, ZERO=0.0
5.6e-06, 5.6e-06, 5.6e-06, -1.0
5.6e-06, 5.6e-06, 5.6e-06, 1.0
*SOLID SECTION, ELSET=E16, MATERIAL=Alloy_713LC_E16
********************************************************************************
********************************************************************************
** <BEGIN> ~-~~-~~-~~-~~-~ XHA_X HINGE LINE NODE SET
*NSET, NSET=XHA_X
35, 40, 43, 48, 51
** <END>   ~-~~-~~-~~-~~-~ XHA_X HINGE LINE NODE SET
** <BEGIN> ~-~~-~~-~~-~~-~ S_XHA_X_LINE HINGE SLAVE SURFACE (LINE)
*SURFACE, NAME=S_XHA_X_LINE, TYPE=NODE
XHA_X
** <END>   ~-~~-~~-~~-~~-~ S_XHA_X_LINE HINGE SLAVE SURFACE (LINE)
** <BEGIN> ~-~~-~~-~~-~~-~ M_XHA_A_SURF HINGE MASTER SURFACE
*SURFACE, NAME=M_XHA_A_SURF, TYPE=ELEMENT
9, S6
10, S6
11, S6
12, S6
** <END>   ~-~~-~~-~~-~~-~ M_XHA_A_SURF HINGE MASTER SURFACE
*TIE 
S_XHA_X_LINE, M_XHA_A_SURF
********************************************************************************
*INITIAL CONDITIONS, TYPE=TEMPERATURE
NALL, 0.0
********************************************************************************
*BOUNDARY
5, 1
5, 2
5, 3
8, 1
8, 2
8, 3
13, 1
13, 2
13, 3
16, 1
16, 2
16, 3
21, 1
21, 2
21, 3
24, 1
24, 2
24, 3
29, 1
29, 2
** ... 45 like lines cut
*STEP
*STATIC
*DLOAD
13, P4, -10000.0
14, P4, -10000.0
15, P4, -10000.0
16, P4, -10000.0
********************************************************************************
*NODE PRINT, NSET=NALL
U
*NODE FILE, OUTPUT=3D
U
*EL PRINT, ELSET=EALL
S
*EL FILE, OUTPUT=3D
S
*END STEP
********************************************************************************
