*HEADING
MODEL DYNAMICALLY GENERATED PLT_SMALL_R!_X1.inp
** THIS MESH WAS GENERATED ON Thursday, April 4th, 2013 at 11:42:25 AM
********************************************************************************
**   NEX = 40
**   Pressure = 10000.0
**   matty = Alloy_713LC
********************************************************************************
** <BEGIN> ~-~~-~~-~~-~~-~~-~~-~~-~~-~~-~~-~~-~~-~~-~~-~ NA_MESH NODES
*NODE, NSET=NA_MESH
1, 0.0, 0.0, -0.5
2, 0.0, 0.0, -0.25
3, 0.0, 0.0, 0.0
4, 0.0, 0.0, 0.25
5, 0.0, 0.0, 0.5
6, 0.0, 0.25, -0.5
8, 0.0, 0.25, 0.0
10, 0.0, 0.25, 0.5
11, 0.0, 0.5, -0.5
12, 0.0, 0.5, -0.25
13, 0.0, 0.5, 0.0
14, 0.0, 0.5, 0.25
15, 0.0, 0.5, 0.5
16, 0.0, 0.75, -0.5
18, 0.0, 0.75, 0.0
20, 0.0, 0.75, 0.5
21, 0.0, 1.0, -0.5
22, 0.0, 1.0, -0.25
23, 0.0, 1.0, 0.0
24, 0.0, 1.0, 0.25
** ... 69 like lines cut
** <END> ~-~~-~~-~~-~~-~~-~~-~~-~~-~~-~~-~~-~~-~~-~~-~ NA_MESH NODES
** <BEGIN> ~-~~-~~-~~-~~-~~-~~-~~-~~-~~-~~-~~-~~-~~-~~-~ NB_MESH NODES
*NODE, NSET=NB_MESH
126, 0.0, 0.0, -0.5
127, 0.0, 0.0, -0.333333333333
128, 0.0, 0.0, -0.166666666667
129, 0.0, 0.0, 0.0
130, 0.0, 0.0, 0.166666666667
131, 0.0, 0.0, 0.333333333333
132, 0.0, 0.0, 0.5
133, -0.25, 0.0, -0.5
135, -0.25, 0.0, -0.166666666667
137, -0.25, 0.0, 0.166666666667
139, -0.25, 0.0, 0.5
140, -0.5, 0.0, -0.5
141, -0.5, 0.0, -0.333333333333
142, -0.5, 0.0, -0.166666666667
143, -0.5, 0.0, 0.0
144, -0.5, 0.0, 0.166666666667
145, -0.5, 0.0, 0.333333333333
146, -0.5, 0.0, 0.5
147, -0.75, 0.0, -0.5
149, -0.75, 0.0, -0.166666666667
** ... 150 like lines cut
** <END> ~-~~-~~-~~-~~-~~-~~-~~-~~-~~-~~-~~-~~-~~-~~-~ NB_MESH NODES
** <BEGIN> ~-~~-~~-~~-~~-~~-~~-~~-~~-~~-~~-~~-~~-~~-~~-~ EA_MESH ELEMENTS
*ELEMENT, TYPE=C3D20R, ELSET=E1
1, 1, 51, 61, 11, 3, 53, 63, 13, 26, 56, 36, 6, 
28, 58, 38, 8, 2, 52, 62, 12
*ELEMENT, TYPE=C3D20R, ELSET=E2
2, 3, 53, 63, 13, 5, 55, 65, 15, 28, 58, 38, 8, 
30, 60, 40, 10, 4, 54, 64, 14
*ELEMENT, TYPE=C3D20R, ELSET=E3
3, 11, 61, 71, 21, 13, 63, 73, 23, 36, 66, 46, 16, 
38, 68, 48, 18, 12, 62, 72, 22
*ELEMENT, TYPE=C3D20R, ELSET=E4
4, 13, 63, 73, 23, 15, 65, 75, 25, 38, 68, 48, 18, 
40, 70, 50, 20, 14, 64, 74, 24
*ELEMENT, TYPE=C3D20R, ELSET=E5
5, 51, 101, 111, 61, 53, 103, 113, 63, 76, 106, 86, 56, 
78, 108, 88, 58, 52, 102, 112, 62
*ELEMENT, TYPE=C3D20R, ELSET=E6
6, 53, 103, 113, 63, 55, 105, 115, 65, 78, 108, 88, 58, 
80, 110, 90, 60, 54, 104, 114, 64
*ELEMENT, TYPE=C3D20R, ELSET=E7
7, 61, 111, 121, 71, 63, 113, 123, 73, 86, 116, 96, 66, 
88, 118, 98, 68, 62, 112, 122, 72
*ELEMENT, TYPE=C3D20R, ELSET=E8
8, 63, 113, 123, 73, 65, 115, 125, 75, 88, 118, 98, 68, 
90, 120, 100, 70, 64, 114, 124, 74
** <END> ~-~~-~~-~~-~~-~~-~~-~~-~~-~~-~~-~~-~~-~~-~~-~ EA_MESH ELEMENTS
** <BEGIN> ~-~~-~~-~~-~~-~~-~~-~~-~~-~~-~~-~~-~~-~~-~~-~ EB_MESH ELEMENTS
*ELEMENT, TYPE=C3D20R, ELSET=E9
9, 126, 196, 210, 140, 128, 198, 212, 142, 161, 203, 175, 133, 
163, 205, 177, 135, 127, 197, 211, 141
*ELEMENT, TYPE=C3D20R, ELSET=E10
10, 128, 198, 212, 142, 130, 200, 214, 144, 163, 205, 177, 135, 
165, 207, 179, 137, 129, 199, 213, 143
*ELEMENT, TYPE=C3D20R, ELSET=E11
11, 130, 200, 214, 144, 132, 202, 216, 146, 165, 207, 179, 137, 
167, 209, 181, 139, 131, 201, 215, 145
*ELEMENT, TYPE=C3D20R, ELSET=E12
12, 140, 210, 224, 154, 142, 212, 226, 156, 175, 217, 189, 147, 
177, 219, 191, 149, 141, 211, 225, 155
*ELEMENT, TYPE=C3D20R, ELSET=E13
13, 142, 212, 226, 156, 144, 214, 228, 158, 177, 219, 191, 149, 
179, 221, 193, 151, 143, 213, 227, 157
*ELEMENT, TYPE=C3D20R, ELSET=E14
14, 144, 214, 228, 158, 146, 216, 230, 160, 179, 221, 193, 151, 
181, 223, 195, 153, 145, 215, 229, 159
*ELEMENT, TYPE=C3D20R, ELSET=E15
15, 196, 266, 280, 210, 198, 268, 282, 212, 231, 273, 245, 203, 
233, 275, 247, 205, 197, 267, 281, 211
*ELEMENT, TYPE=C3D20R, ELSET=E16
16, 198, 268, 282, 212, 200, 270, 284, 214, 233, 275, 247, 205, 
235, 277, 249, 207, 199, 269, 283, 213
*ELEMENT, TYPE=C3D20R, ELSET=E17
17, 200, 270, 284, 214, 202, 272, 286, 216, 235, 277, 249, 207, 
237, 279, 251, 209, 201, 271, 285, 215
*ELEMENT, TYPE=C3D20R, ELSET=E18
18, 210, 280, 294, 224, 212, 282, 296, 226, 245, 287, 259, 217, 
247, 289, 261, 219, 211, 281, 295, 225
*ELEMENT, TYPE=C3D20R, ELSET=E19
19, 212, 282, 296, 226, 214, 284, 298, 228, 247, 289, 261, 219, 
249, 291, 263, 221, 213, 283, 297, 227
*ELEMENT, TYPE=C3D20R, ELSET=E20
20, 214, 284, 298, 228, 216, 286, 300, 230, 249, 291, 263, 221, 
251, 293, 265, 223, 215, 285, 299, 229
*ELEMENT, TYPE=C3D20R, ELSET=E21
21, 266, 336, 350, 280, 268, 338, 352, 282, 301, 343, 315, 273, 
303, 345, 317, 275, 267, 337, 351, 281
*ELEMENT, TYPE=C3D20R, ELSET=E22
22, 268, 338, 352, 282, 270, 340, 354, 284, 303, 345, 317, 275, 
305, 347, 319, 277, 269, 339, 353, 283
*ELEMENT, TYPE=C3D20R, ELSET=E23
23, 270, 340, 354, 284, 272, 342, 356, 286, 305, 347, 319, 277, 
307, 349, 321, 279, 271, 341, 355, 285
*ELEMENT, TYPE=C3D20R, ELSET=E24
24, 280, 350, 364, 294, 282, 352, 366, 296, 315, 357, 329, 287, 
317, 359, 331, 289, 281, 351, 365, 295
*ELEMENT, TYPE=C3D20R, ELSET=E25
25, 282, 352, 366, 296, 284, 354, 368, 298, 317, 359, 331, 289, 
319, 361, 333, 291, 283, 353, 367, 297
*ELEMENT, TYPE=C3D20R, ELSET=E26
26, 284, 354, 368, 298, 286, 356, 370, 300, 319, 361, 333, 291, 
321, 363, 335, 293, 285, 355, 369, 299
** <END> ~-~~-~~-~~-~~-~~-~~-~~-~~-~~-~~-~~-~~-~~-~~-~ EB_MESH ELEMENTS
*ELSET, ELSET=EALL
1, 2, 3, 4, 5, 6, 7, 8, 9, 10, 11, 12, 13
14, 15, 16, 17, 18, 19, 20, 21, 22, 23, 24, 25, 26
********************************************************************************
*MATERIAL, NAME=Alloy_713LC_E1
**  ELSET VOL FRAC = 1.0
*DENSITY
0.000748533, -1.0
0.000748533, 1.0
*ELASTIC, TYPE=ENGINEERING CONSTANTS
28873091.7796, 28873091.7796, 28873091.7796, 0.3, 0.3, 0.3, 11105035.2998, 11105035.2998
11105035.2998, -1.0
28865399.0534, 28865399.0534, 28865399.0534, 0.3, 0.3, 0.3, 11102076.559, 11102076.559
11102076.559, 1.0
*EXPANSION, TYPE=ORTHO, ZERO=0.0
5.6e-06, 5.6e-06, 5.6e-06, -1.0
5.6e-06, 5.6e-06, 5.6e-06, 1.0
*SOLID SECTION, ELSET=E1, MATERIAL=Alloy_713LC_E1
*MATERIAL, NAME=Alloy_713LC_E2
**  ELSET VOL FRAC = 1.0
*DENSITY
0.000748533, -1.0
0.000748533, 1.0
*ELASTIC, TYPE=ENGINEERING CONSTANTS
28873091.7796, 28873091.7796, 28873091.7796, 0.3, 0.3, 0.3, 11105035.2998, 11105035.2998
11105035.2998, -1.0
28865399.0534, 28865399.0534, 28865399.0534, 0.3, 0.3, 0.3, 11102076.559, 11102076.559
11102076.559, 1.0
*EXPANSION, TYPE=ORTHO, ZERO=0.0
5.6e-06, 5.6e-06, 5.6e-06, -1.0
5.6e-06, 5.6e-06, 5.6e-06, 1.0
*SOLID SECTION, ELSET=E2, MATERIAL=Alloy_713LC_E2
*MATERIAL, NAME=Alloy_713LC_E3
**  ELSET VOL FRAC = 1.0
*DENSITY
0.000748533, -1.0
0.000748533, 1.0
*ELASTIC, TYPE=ENGINEERING CONSTANTS
28873091.7796, 28873091.7796, 28873091.7796, 0.3, 0.3, 0.3, 11105035.2998, 11105035.2998
11105035.2998, -1.0
28865399.0534, 28865399.0534, 28865399.0534, 0.3, 0.3, 0.3, 11102076.559, 11102076.559
11102076.559, 1.0
*EXPANSION, TYPE=ORTHO, ZERO=0.0
5.6e-06, 5.6e-06, 5.6e-06, -1.0
5.6e-06, 5.6e-06, 5.6e-06, 1.0
*SOLID SECTION, ELSET=E3, MATERIAL=Alloy_713LC_E3
*MATERIAL, NAME=Alloy_713LC_E4
**  ELSET VOL FRAC = 1.0
*DENSITY
0.000748533, -1.0
0.000748533, 1.0
*ELASTIC, TYPE=ENGINEERING CONSTANTS
28873091.7796, 28873091.7796, 28873091.7796, 0.3, 0.3, 0.3, 11105035.2998, 11105035.2998
11105035.2998, -1.0
28865399.0534, 28865399.0534, 28865399.0534, 0.3, 0.3, 0.3, 11102076.559, 11102076.559
11102076.559, 1.0
*EXPANSION, TYPE=ORTHO, ZERO=0.0
5.6e-06, 5.6e-06, 5.6e-06, -1.0
5.6e-06, 5.6e-06, 5.6e-06, 1.0
*SOLID SECTION, ELSET=E4, MATERIAL=Alloy_713LC_E4
*MATERIAL, NAME=Alloy_713LC_E5
**  ELSET VOL FRAC = 1.0
*DENSITY
0.000748533, -1.0
0.000748533, 1.0
*ELASTIC, TYPE=ENGINEERING CONSTANTS
28873091.7796, 28873091.7796, 28873091.7796, 0.3, 0.3, 0.3, 11105035.2998, 11105035.2998
11105035.2998, -1.0
28865399.0534, 28865399.0534, 28865399.0534, 0.3, 0.3, 0.3, 11102076.559, 11102076.559
11102076.559, 1.0
*EXPANSION, TYPE=ORTHO, ZERO=0.0
5.6e-06, 5.6e-06, 5.6e-06, -1.0
5.6e-06, 5.6e-06, 5.6e-06, 1.0
*SOLID SECTION, ELSET=E5, MATERIAL=Alloy_713LC_E5
*MATERIAL, NAME=Alloy_713LC_E6
**  ELSET VOL FRAC = 1.0
*DENSITY
0.000748533, -1.0
0.000748533, 1.0
*ELASTIC, TYPE=ENGINEERING CONSTANTS
28873091.7796, 28873091.7796, 28873091.7796, 0.3, 0.3, 0.3, 11105035.2998, 11105035.2998
11105035.2998, -1.0
28865399.0534, 28865399.0534, 28865399.0534, 0.3, 0.3, 0.3, 11102076.559, 11102076.559
11102076.559, 1.0
*EXPANSION, TYPE=ORTHO, ZERO=0.0
5.6e-06, 5.6e-06, 5.6e-06, -1.0
5.6e-06, 5.6e-06, 5.6e-06, 1.0
*SOLID SECTION, ELSET=E6, MATERIAL=Alloy_713LC_E6
*MATERIAL, NAME=Alloy_713LC_E7
**  ELSET VOL FRAC = 1.0
*DENSITY
0.000748533, -1.0
0.000748533, 1.0
*ELASTIC, TYPE=ENGINEERING CONSTANTS
28873091.7796, 28873091.7796, 28873091.7796, 0.3, 0.3, 0.3, 11105035.2998, 11105035.2998
11105035.2998, -1.0
28865399.0534, 28865399.0534, 28865399.0534, 0.3, 0.3, 0.3, 11102076.559, 11102076.559
11102076.559, 1.0
*EXPANSION, TYPE=ORTHO, ZERO=0.0
5.6e-06, 5.6e-06, 5.6e-06, -1.0
5.6e-06, 5.6e-06, 5.6e-06, 1.0
*SOLID SECTION, ELSET=E7, MATERIAL=Alloy_713LC_E7
*MATERIAL, NAME=Alloy_713LC_E8
**  ELSET VOL FRAC = 1.0
*DENSITY
0.000748533, -1.0
0.000748533, 1.0
*ELASTIC, TYPE=ENGINEERING CONSTANTS
28873091.7796, 28873091.7796, 28873091.7796, 0.3, 0.3, 0.3, 11105035.2998, 11105035.2998
11105035.2998, -1.0
28865399.0534, 28865399.0534, 28865399.0534, 0.3, 0.3, 0.3, 11102076.559, 11102076.559
11102076.559, 1.0
*EXPANSION, TYPE=ORTHO, ZERO=0.0
5.6e-06, 5.6e-06, 5.6e-06, -1.0
5.6e-06, 5.6e-06, 5.6e-06, 1.0
*SOLID SECTION, ELSET=E8, MATERIAL=Alloy_713LC_E8
********************************************************************************
*MATERIAL, NAME=Alloy_713LC_E9
**  ELSET VOL FRAC = 1.0
*DENSITY
0.000748533, -1.0
0.000748533, 1.0
*ELASTIC, TYPE=ENGINEERING CONSTANTS
28873091.7796, 28873091.7796, 28873091.7796, 0.3, 0.3, 0.3, 11105035.2998, 11105035.2998
11105035.2998, -1.0
28865399.0534, 28865399.0534, 28865399.0534, 0.3, 0.3, 0.3, 11102076.559, 11102076.559
11102076.559, 1.0
*EXPANSION, TYPE=ORTHO, ZERO=0.0
5.6e-06, 5.6e-06, 5.6e-06, -1.0
5.6e-06, 5.6e-06, 5.6e-06, 1.0
*SOLID SECTION, ELSET=E9, MATERIAL=Alloy_713LC_E9
*MATERIAL, NAME=Alloy_713LC_E10
**  ELSET VOL FRAC = 1.0
*DENSITY
0.000748533, -1.0
0.000748533, 1.0
*ELASTIC, TYPE=ENGINEERING CONSTANTS
28873091.7796, 28873091.7796, 28873091.7796, 0.3, 0.3, 0.3, 11105035.2998, 11105035.2998
11105035.2998, -1.0
28865399.0534, 28865399.0534, 28865399.0534, 0.3, 0.3, 0.3, 11102076.559, 11102076.559
11102076.559, 1.0
*EXPANSION, TYPE=ORTHO, ZERO=0.0
5.6e-06, 5.6e-06, 5.6e-06, -1.0
5.6e-06, 5.6e-06, 5.6e-06, 1.0
*SOLID SECTION, ELSET=E10, MATERIAL=Alloy_713LC_E10
*MATERIAL, NAME=Alloy_713LC_E11
**  ELSET VOL FRAC = 1.0
*DENSITY
0.000748533, -1.0
0.000748533, 1.0
*ELASTIC, TYPE=ENGINEERING CONSTANTS
28873091.7796, 28873091.7796, 28873091.7796, 0.3, 0.3, 0.3, 11105035.2998, 11105035.2998
11105035.2998, -1.0
28865399.0534, 28865399.0534, 28865399.0534, 0.3, 0.3, 0.3, 11102076.559, 11102076.559
11102076.559, 1.0
*EXPANSION, TYPE=ORTHO, ZERO=0.0
5.6e-06, 5.6e-06, 5.6e-06, -1.0
5.6e-06, 5.6e-06, 5.6e-06, 1.0
*SOLID SECTION, ELSET=E11, MATERIAL=Alloy_713LC_E11
*MATERIAL, NAME=Alloy_713LC_E12
**  ELSET VOL FRAC = 1.0
*DENSITY
0.000748533, -1.0
0.000748533, 1.0
*ELASTIC, TYPE=ENGINEERING CONSTANTS
28873091.7796, 28873091.7796, 28873091.7796, 0.3, 0.3, 0.3, 11105035.2998, 11105035.2998
11105035.2998, -1.0
28865399.0534, 28865399.0534, 28865399.0534, 0.3, 0.3, 0.3, 11102076.559, 11102076.559
11102076.559, 1.0
*EXPANSION, TYPE=ORTHO, ZERO=0.0
5.6e-06, 5.6e-06, 5.6e-06, -1.0
5.6e-06, 5.6e-06, 5.6e-06, 1.0
*SOLID SECTION, ELSET=E12, MATERIAL=Alloy_713LC_E12
*MATERIAL, NAME=Alloy_713LC_E13
**  ELSET VOL FRAC = 1.0
*DENSITY
0.000748533, -1.0
0.000748533, 1.0
*ELASTIC, TYPE=ENGINEERING CONSTANTS
28873091.7796, 28873091.7796, 28873091.7796, 0.3, 0.3, 0.3, 11105035.2998, 11105035.2998
11105035.2998, -1.0
28865399.0534, 28865399.0534, 28865399.0534, 0.3, 0.3, 0.3, 11102076.559, 11102076.559
11102076.559, 1.0
*EXPANSION, TYPE=ORTHO, ZERO=0.0
5.6e-06, 5.6e-06, 5.6e-06, -1.0
5.6e-06, 5.6e-06, 5.6e-06, 1.0
*SOLID SECTION, ELSET=E13, MATERIAL=Alloy_713LC_E13
*MATERIAL, NAME=Alloy_713LC_E14
**  ELSET VOL FRAC = 1.0
*DENSITY
0.000748533, -1.0
0.000748533, 1.0
*ELASTIC, TYPE=ENGINEERING CONSTANTS
28873091.7796, 28873091.7796, 28873091.7796, 0.3, 0.3, 0.3, 11105035.2998, 11105035.2998
11105035.2998, -1.0
28865399.0534, 28865399.0534, 28865399.0534, 0.3, 0.3, 0.3, 11102076.559, 11102076.559
11102076.559, 1.0
*EXPANSION, TYPE=ORTHO, ZERO=0.0
5.6e-06, 5.6e-06, 5.6e-06, -1.0
5.6e-06, 5.6e-06, 5.6e-06, 1.0
*SOLID SECTION, ELSET=E14, MATERIAL=Alloy_713LC_E14
*MATERIAL, NAME=Alloy_713LC_E15
**  ELSET VOL FRAC = 1.0
*DENSITY
0.000748533, -1.0
0.000748533, 1.0
*ELASTIC, TYPE=ENGINEERING CONSTANTS
28873091.7796, 28873091.7796, 28873091.7796, 0.3, 0.3, 0.3, 11105035.2998, 11105035.2998
11105035.2998, -1.0
28865399.0534, 28865399.0534, 28865399.0534, 0.3, 0.3, 0.3, 11102076.559, 11102076.559
11102076.559, 1.0
*EXPANSION, TYPE=ORTHO, ZERO=0.0
5.6e-06, 5.6e-06, 5.6e-06, -1.0
5.6e-06, 5.6e-06, 5.6e-06, 1.0
*SOLID SECTION, ELSET=E15, MATERIAL=Alloy_713LC_E15
*MATERIAL, NAME=Alloy_713LC_E16
**  ELSET VOL FRAC = 1.0
*DENSITY
0.000748533, -1.0
0.000748533, 1.0
*ELASTIC, TYPE=ENGINEERING CONSTANTS
28873091.7796, 28873091.7796, 28873091.7796, 0.3, 0.3, 0.3, 11105035.2998, 11105035.2998
11105035.2998, -1.0
28865399.0534, 28865399.0534, 28865399.0534, 0.3, 0.3, 0.3, 11102076.559, 11102076.559
11102076.559, 1.0
*EXPANSION, TYPE=ORTHO, ZERO=0.0
5.6e-06, 5.6e-06, 5.6e-06, -1.0
5.6e-06, 5.6e-06, 5.6e-06, 1.0
*SOLID SECTION, ELSET=E16, MATERIAL=Alloy_713LC_E16
*MATERIAL, NAME=Alloy_713LC_E17
**  ELSET VOL FRAC = 1.0
*DENSITY
0.000748533, -1.0
0.000748533, 1.0
*ELASTIC, TYPE=ENGINEERING CONSTANTS
28873091.7796, 28873091.7796, 28873091.7796, 0.3, 0.3, 0.3, 11105035.2998, 11105035.2998
11105035.2998, -1.0
28865399.0534, 28865399.0534, 28865399.0534, 0.3, 0.3, 0.3, 11102076.559, 11102076.559
11102076.559, 1.0
*EXPANSION, TYPE=ORTHO, ZERO=0.0
5.6e-06, 5.6e-06, 5.6e-06, -1.0
5.6e-06, 5.6e-06, 5.6e-06, 1.0
*SOLID SECTION, ELSET=E17, MATERIAL=Alloy_713LC_E17
*MATERIAL, NAME=Alloy_713LC_E18
**  ELSET VOL FRAC = 1.0
*DENSITY
0.000748533, -1.0
0.000748533, 1.0
*ELASTIC, TYPE=ENGINEERING CONSTANTS
28873091.7796, 28873091.7796, 28873091.7796, 0.3, 0.3, 0.3, 11105035.2998, 11105035.2998
11105035.2998, -1.0
28865399.0534, 28865399.0534, 28865399.0534, 0.3, 0.3, 0.3, 11102076.559, 11102076.559
11102076.559, 1.0
*EXPANSION, TYPE=ORTHO, ZERO=0.0
5.6e-06, 5.6e-06, 5.6e-06, -1.0
5.6e-06, 5.6e-06, 5.6e-06, 1.0
*SOLID SECTION, ELSET=E18, MATERIAL=Alloy_713LC_E18
*MATERIAL, NAME=Alloy_713LC_E19
**  ELSET VOL FRAC = 1.0
*DENSITY
0.000748533, -1.0
0.000748533, 1.0
*ELASTIC, TYPE=ENGINEERING CONSTANTS
28873091.7796, 28873091.7796, 28873091.7796, 0.3, 0.3, 0.3, 11105035.2998, 11105035.2998
11105035.2998, -1.0
28865399.0534, 28865399.0534, 28865399.0534, 0.3, 0.3, 0.3, 11102076.559, 11102076.559
11102076.559, 1.0
*EXPANSION, TYPE=ORTHO, ZERO=0.0
5.6e-06, 5.6e-06, 5.6e-06, -1.0
5.6e-06, 5.6e-06, 5.6e-06, 1.0
*SOLID SECTION, ELSET=E19, MATERIAL=Alloy_713LC_E19
*MATERIAL, NAME=Alloy_713LC_E20
**  ELSET VOL FRAC = 1.0
*DENSITY
0.000748533, -1.0
0.000748533, 1.0
*ELASTIC, TYPE=ENGINEERING CONSTANTS
28873091.7796, 28873091.7796, 28873091.7796, 0.3, 0.3, 0.3, 11105035.2998, 11105035.2998
11105035.2998, -1.0
28865399.0534, 28865399.0534, 28865399.0534, 0.3, 0.3, 0.3, 11102076.559, 11102076.559
11102076.559, 1.0
*EXPANSION, TYPE=ORTHO, ZERO=0.0
5.6e-06, 5.6e-06, 5.6e-06, -1.0
5.6e-06, 5.6e-06, 5.6e-06, 1.0
*SOLID SECTION, ELSET=E20, MATERIAL=Alloy_713LC_E20
*MATERIAL, NAME=Alloy_713LC_E21
**  ELSET VOL FRAC = 1.0
*DENSITY
0.000748533, -1.0
0.000748533, 1.0
*ELASTIC, TYPE=ENGINEERING CONSTANTS
28873091.7796, 28873091.7796, 28873091.7796, 0.3, 0.3, 0.3, 11105035.2998, 11105035.2998
11105035.2998, -1.0
28865399.0534, 28865399.0534, 28865399.0534, 0.3, 0.3, 0.3, 11102076.559, 11102076.559
11102076.559, 1.0
*EXPANSION, TYPE=ORTHO, ZERO=0.0
5.6e-06, 5.6e-06, 5.6e-06, -1.0
5.6e-06, 5.6e-06, 5.6e-06, 1.0
*SOLID SECTION, ELSET=E21, MATERIAL=Alloy_713LC_E21
*MATERIAL, NAME=Alloy_713LC_E22
**  ELSET VOL FRAC = 1.0
*DENSITY
0.000748533, -1.0
0.000748533, 1.0
*ELASTIC, TYPE=ENGINEERING CONSTANTS
28873091.7796, 28873091.7796, 28873091.7796, 0.3, 0.3, 0.3, 11105035.2998, 11105035.2998
11105035.2998, -1.0
28865399.0534, 28865399.0534, 28865399.0534, 0.3, 0.3, 0.3, 11102076.559, 11102076.559
11102076.559, 1.0
*EXPANSION, TYPE=ORTHO, ZERO=0.0
5.6e-06, 5.6e-06, 5.6e-06, -1.0
5.6e-06, 5.6e-06, 5.6e-06, 1.0
*SOLID SECTION, ELSET=E22, MATERIAL=Alloy_713LC_E22
*MATERIAL, NAME=Alloy_713LC_E23
**  ELSET VOL FRAC = 1.0
*DENSITY
0.000748533, -1.0
0.000748533, 1.0
*ELASTIC, TYPE=ENGINEERING CONSTANTS
28873091.7796, 28873091.7796, 28873091.7796, 0.3, 0.3, 0.3, 11105035.2998, 11105035.2998
11105035.2998, -1.0
28865399.0534, 28865399.0534, 28865399.0534, 0.3, 0.3, 0.3, 11102076.559, 11102076.559
11102076.559, 1.0
*EXPANSION, TYPE=ORTHO, ZERO=0.0
5.6e-06, 5.6e-06, 5.6e-06, -1.0
5.6e-06, 5.6e-06, 5.6e-06, 1.0
*SOLID SECTION, ELSET=E23, MATERIAL=Alloy_713LC_E23
*MATERIAL, NAME=Alloy_713LC_E24
**  ELSET VOL FRAC = 1.0
*DENSITY
0.000748533, -1.0
0.000748533, 1.0
*ELASTIC, TYPE=ENGINEERING CONSTANTS
28873091.7796, 28873091.7796, 28873091.7796, 0.3, 0.3, 0.3, 11105035.2998, 11105035.2998
11105035.2998, -1.0
28865399.0534, 28865399.0534, 28865399.0534, 0.3, 0.3, 0.3, 11102076.559, 11102076.559
11102076.559, 1.0
*EXPANSION, TYPE=ORTHO, ZERO=0.0
5.6e-06, 5.6e-06, 5.6e-06, -1.0
5.6e-06, 5.6e-06, 5.6e-06, 1.0
*SOLID SECTION, ELSET=E24, MATERIAL=Alloy_713LC_E24
*MATERIAL, NAME=Alloy_713LC_E25
**  ELSET VOL FRAC = 1.0
*DENSITY
0.000748533, -1.0
0.000748533, 1.0
*ELASTIC, TYPE=ENGINEERING CONSTANTS
28873091.7796, 28873091.7796, 28873091.7796, 0.3, 0.3, 0.3, 11105035.2998, 11105035.2998
11105035.2998, -1.0
28865399.0534, 28865399.0534, 28865399.0534, 0.3, 0.3, 0.3, 11102076.559, 11102076.559
11102076.559, 1.0
*EXPANSION, TYPE=ORTHO, ZERO=0.0
5.6e-06, 5.6e-06, 5.6e-06, -1.0
5.6e-06, 5.6e-06, 5.6e-06, 1.0
*SOLID SECTION, ELSET=E25, MATERIAL=Alloy_713LC_E25
*MATERIAL, NAME=Alloy_713LC_E26
**  ELSET VOL FRAC = 1.0
*DENSITY
0.000748533, -1.0
0.000748533, 1.0
*ELASTIC, TYPE=ENGINEERING CONSTANTS
28873091.7796, 28873091.7796, 28873091.7796, 0.3, 0.3, 0.3, 11105035.2998, 11105035.2998
11105035.2998, -1.0
28865399.0534, 28865399.0534, 28865399.0534, 0.3, 0.3, 0.3, 11102076.559, 11102076.559
11102076.559, 1.0
*EXPANSION, TYPE=ORTHO, ZERO=0.0
5.6e-06, 5.6e-06, 5.6e-06, -1.0
5.6e-06, 5.6e-06, 5.6e-06, 1.0
*SOLID SECTION, ELSET=E26, MATERIAL=Alloy_713LC_E26
********************************************************************************
*NSET, NSET=ARB_A
1, 2, 3, 4, 5, 6, 8, 10, 
11, 12, 13, 14, 15, 16, 18, 20, 
21, 22, 23, 24, 25
** <END> ~-~~-~~-~~-~~-~~-~~-~~-~~-~~-~~-~~-~~-~~-~~-~ ARB_A JOIN NODE SET
** <BEGIN> ~-~~-~~-~~-~~-~~-~~-~~-~~-~~-~~-~~-~~-~~-~~-~ ARB_B JOIN NODE SET
*NSET, NSET=ARB_B
126, 127, 128, 129, 130, 131, 132, 161, 
163, 165, 167, 196, 197, 198, 199, 200, 
201, 202, 231, 233, 235, 237, 266, 267, 
268, 269, 270, 271, 272, 301, 303, 305, 
307, 336, 337, 338, 339, 340, 341, 342
** <END> ~-~~-~~-~~-~~-~~-~~-~~-~~-~~-~~-~~-~~-~~-~~-~ ARB_B JOIN NODE SET
********************************************************************************
*NSET, NSET=NALL
NA_MESH, NB_MESH
********************************************************************************
*SURFACE, NAME=ARB_AS, TYPE=ELEMENT
1, S6
2, S6
3, S6
4, S6
********************************************************************************
*SURFACE, NAME=ARB_BS, TYPE=ELEMENT
9, S3
10, S3
11, S3
15, S3
16, S3
17, S3
21, S3
22, S3
23, S3
********************************************************************************
***TIE
**ARB_AS, ARB_BS
********************************************************************************
*TIE
ARB_BS, ARB_AS
********************************************************************************
*INITIAL CONDITIONS, TYPE=TEMPERATURE
NALL, 0.0
********************************************************************************
*BOUNDARY
154, 1
154, 2
154, 3
155, 1
155, 2
155, 3
156, 1
156, 2
156, 3
157, 1
157, 2
157, 3
158, 1
158, 2
158, 3
159, 1
159, 2
159, 3
160, 1
160, 2
** ... 100 like lines cut
*STEP
*STATIC
*DLOAD
5, P4, -100000.0 
6, P4, -100000.0 
7, P4, -100000.0 
8, P4, -100000.0 
********************************************************************************
*NODE PRINT, NSET=NALL
U
*NODE FILE, OUTPUT=3D
U
*EL PRINT, ELSET=EALL
S
*EL FILE, OUTPUT=3D
S
*END STEP
********************************************************************************
