*HEADING
MODEL DYNAMICALLY GENERATED PLT_SMALL_R!_X1.inp
** THIS MESH WAS GENERATED ON Thursday, April 4th, 2013 at 11:42:25 AM
********************************************************************************
**   NEX = 40
**   Pressure = 10000.0
**   matty = Alloy_713LC
********************************************************************************
** <BEGIN> ~-~~-~~-~~-~~-~~-~~-~~-~~-~~-~~-~~-~~-~~-~~-~ NA_MESH NODES
*NODE, NSET=NA_MESH
1, 0.0, 0.0, -0.5
2, 0.0, 0.0, -0.25
3, 0.0, 0.0, 0.0
4, 0.0, 0.0, 0.25
5, 0.0, 0.0, 0.5
6, 0.0, 0.25, -0.5
8, 0.0, 0.25, 0.0
10, 0.0, 0.25, 0.5
11, 0.0, 0.5, -0.5
12, 0.0, 0.5, -0.25
13, 0.0, 0.5, 0.0
14, 0.0, 0.5, 0.25
15, 0.0, 0.5, 0.5
16, 0.0, 0.75, -0.5
18, 0.0, 0.75, 0.0
20, 0.0, 0.75, 0.5
21, 0.0, 1.0, -0.5
22, 0.0, 1.0, -0.25
23, 0.0, 1.0, 0.0
24, 0.0, 1.0, 0.25
** ... 69 like lines cut
** <END> ~-~~-~~-~~-~~-~~-~~-~~-~~-~~-~~-~~-~~-~~-~~-~ NA_MESH NODES
** <BEGIN> ~-~~-~~-~~-~~-~~-~~-~~-~~-~~-~~-~~-~~-~~-~~-~ NB_MESH NODES
*NODE, NSET=NB_MESH
126, 0.0, 0.0, -0.5
127, 0.0, 0.0, -0.333333333333
128, 0.0, 0.0, -0.166666666667
129, 0.0, 0.0, 0.0
130, 0.0, 0.0, 0.166666666667
131, 0.0, 0.0, 0.333333333333
132, 0.0, 0.0, 0.5
133, -0.25, 0.0, -0.5
135, -0.25, 0.0, -0.166666666667
137, -0.25, 0.0, 0.166666666667
139, -0.25, 0.0, 0.5
140, -0.5, 0.0, -0.5
141, -0.5, 0.0, -0.333333333333
142, -0.5, 0.0, -0.166666666667
143, -0.5, 0.0, 0.0
144, -0.5, 0.0, 0.166666666667
145, -0.5, 0.0, 0.333333333333
146, -0.5, 0.0, 0.5
147, -0.75, 0.0, -0.5
149, -0.75, 0.0, -0.166666666667
** ... 150 like lines cut
** <END> ~-~~-~~-~~-~~-~~-~~-~~-~~-~~-~~-~~-~~-~~-~~-~ NB_MESH NODES
*** <BEGIN> EXTRA NODES FOR JOIN EQUATIONS ARB
*NODE, NSET=ARB_X
371, 0.0, 0.666666666667, -0.333333333333
372, 0.0, 0.5, 0.5
373, 0.0, 0.666666666667, 0.166666666667
374, 0.0, 0.833333333333, -0.5
375, 0.0, 0.666666666667, -0.166666666667
376, 0.0, 1.0, 0.166666666667
377, 0.0, 0.0, 0.0
378, 0.0, 0.333333333333, 0.0
379, 0.0, 0.666666666667, -0.5
380, 0.0, 0.166666666667, -0.5
381, 0.0, 0.666666666667, 0.333333333333
382, 0.0, 0.666666666667, 0.5
383, 0.0, 0.333333333333, -0.166666666667
384, 0.0, 0.333333333333, 0.166666666667
385, 0.0, 0.166666666667, -0.166666666667
386, 0.0, 0.833333333333, -0.166666666667
387, 0.0, 0.5, -0.5
388, 0.0, 0.0, 0.166666666667
389, 0.0, 0.333333333333, -0.333333333333
390, 0.0, 0.0, 0.333333333333
** ... 20 like lines cut
*** <END> EXTRA NODES FOR JOIN EQUATIONS ARB
*NSET, NSET=NALL
NA_MESH, NB_MESH
** <BEGIN> ~-~~-~~-~~-~~-~~-~~-~~-~~-~~-~~-~~-~~-~~-~~-~ ARB_A JOIN NODE SET
*NSET, NSET=ARB_A
1, 2, 3, 4, 5, 6, 8, 10, 
11, 12, 13, 14, 15, 16, 18, 20, 
21, 22, 23, 24, 25
** <END> ~-~~-~~-~~-~~-~~-~~-~~-~~-~~-~~-~~-~~-~~-~~-~ ARB_A JOIN NODE SET
** <BEGIN> ~-~~-~~-~~-~~-~~-~~-~~-~~-~~-~~-~~-~~-~~-~~-~ ARB_B JOIN NODE SET
*NSET, NSET=ARB_B
126, 127, 128, 129, 130, 131, 132, 161, 
163, 165, 167, 196, 197, 198, 199, 200, 
201, 202, 231, 233, 235, 237, 266, 267, 
268, 269, 270, 271, 272, 301, 303, 305, 
307, 336, 337, 338, 339, 340, 341, 342
** <END> ~-~~-~~-~~-~~-~~-~~-~~-~~-~~-~~-~~-~~-~~-~~-~ ARB_B JOIN NODE SET
*NSET, NSET=ARB
ARB_A, ARB_B, ARB_X
********************************************************************************
** <BEGIN> ~-~~-~~-~~-~~-~~-~~-~~-~~-~~-~~-~~-~~-~~-~~-~ ARB JOIN FACE COORDS
*TRANSFORM, NSET=ARB, TYPE=R
0.0, 0.0, 1.0, 0.0, 1.0, 0.0
** <END> ~-~~-~~-~~-~~-~~-~~-~~-~~-~~-~~-~~-~~-~~-~~-~ ARB JOIN FACE COORDS
********************************************************************************
** <BEGIN> ~-~~-~~-~~-~~-~ ARB_B JOIN EQUATIONS
*EQUATION
2
406, 1, -1.0, 1, 1, 1.0
*EQUATION
2
126, 1, -1.0, 406, 1, 1.0
*EQUATION
2
406, 2, -1.0, 1, 2, 1.0
*EQUATION
2
126, 2, -1.0, 406, 2, 1.0
*EQUATION
2
406, 3, -1.0, 1, 3, 1.0
*EQUATION
2
126, 3, -1.0, 406, 3, 1.0
*EQUATION
8
395, 1, -1.0, 1, 1, 0.26412325752, 3, 1, 0.114453411592, 
11, 1, 0.0293470286134, 13, 1, 0.01100513573, 2, 1, 0.316947909024, 
6, 1, 0.17608217168, 8, 1, 0.0880410858401
*EQUATION
2
127, 1, -1.0, 395, 1, 1.0
*EQUATION
8
395, 2, -1.0, 1, 2, 0.26412325752, 3, 2, 0.114453411592, 
11, 2, 0.0293470286134, 13, 2, 0.01100513573, 2, 2, 0.316947909024, 
6, 2, 0.17608217168, 8, 2, 0.0880410858401
*EQUATION
2
127, 2, -1.0, 395, 2, 1.0
*EQUATION
8
395, 3, -1.0, 1, 3, 0.26412325752, 3, 3, 0.114453411592, 
11, 3, 0.0293470286134, 13, 3, 0.01100513573, 2, 3, 0.316947909024, 
6, 3, 0.17608217168, 8, 3, 0.0880410858401
*EQUATION
2
127, 3, -1.0, 395, 3, 1.0
*EQUATION
8
409, 1, -1.0, 3, 1, 0.26412325752, 1, 1, 0.114453411592, 
13, 1, 0.0293470286134, 11, 1, 0.01100513573, 2, 1, 0.316947909024, 
8, 1, 0.17608217168, 6, 1, 0.0880410858401
*EQUATION
2
128, 1, -1.0, 409, 1, 1.0
*EQUATION
8
409, 2, -1.0, 3, 2, 0.26412325752, 1, 2, 0.114453411592, 
13, 2, 0.0293470286134, 11, 2, 0.01100513573, 2, 2, 0.316947909024, 
8, 2, 0.17608217168, 6, 2, 0.0880410858401
*EQUATION
2
128, 2, -1.0, 409, 2, 1.0
*EQUATION
8
409, 3, -1.0, 3, 3, 0.26412325752, 1, 3, 0.114453411592, 
13, 3, 0.0293470286134, 11, 3, 0.01100513573, 2, 3, 0.316947909024, 
8, 3, 0.17608217168, 6, 3, 0.0880410858401
*EQUATION
2
128, 3, -1.0, 409, 3, 1.0
*EQUATION
2
377, 1, -1.0, 3, 1, 1.0
*EQUATION
2
129, 1, -1.0, 377, 1, 1.0
*EQUATION
2
377, 2, -1.0, 3, 2, 1.0
*EQUATION
2
129, 2, -1.0, 377, 2, 1.0
*EQUATION
2
377, 3, -1.0, 3, 3, 1.0
*EQUATION
2
129, 3, -1.0, 377, 3, 1.0
*EQUATION
8
388, 1, -1.0, 3, 1, 0.26412325752, 5, 1, 0.114453411592, 
13, 1, 0.0293470286134, 15, 1, 0.01100513573, 4, 1, 0.316947909024, 
8, 1, 0.17608217168, 10, 1, 0.0880410858401
*EQUATION
2
130, 1, -1.0, 388, 1, 1.0
*EQUATION
8
388, 2, -1.0, 3, 2, 0.26412325752, 5, 2, 0.114453411592, 
13, 2, 0.0293470286134, 15, 2, 0.01100513573, 4, 2, 0.316947909024, 
8, 2, 0.17608217168, 10, 2, 0.0880410858401
*EQUATION
2
130, 2, -1.0, 388, 2, 1.0
*EQUATION
8
388, 3, -1.0, 3, 3, 0.26412325752, 5, 3, 0.114453411592, 
13, 3, 0.0293470286134, 15, 3, 0.01100513573, 4, 3, 0.316947909024, 
8, 3, 0.17608217168, 10, 3, 0.0880410858401
*EQUATION
2
130, 3, -1.0, 388, 3, 1.0
*EQUATION
8
390, 1, -1.0, 5, 1, 0.26412325752, 3, 1, 0.114453411592, 
15, 1, 0.0293470286134, 13, 1, 0.01100513573, 4, 1, 0.316947909024, 
10, 1, 0.17608217168, 8, 1, 0.0880410858401
*EQUATION
2
131, 1, -1.0, 390, 1, 1.0
*EQUATION
8
390, 2, -1.0, 5, 2, 0.26412325752, 3, 2, 0.114453411592, 
15, 2, 0.0293470286134, 13, 2, 0.01100513573, 4, 2, 0.316947909024, 
10, 2, 0.17608217168, 8, 2, 0.0880410858401
*EQUATION
2
131, 2, -1.0, 390, 2, 1.0
*EQUATION
8
390, 3, -1.0, 5, 3, 0.26412325752, 3, 3, 0.114453411592, 
15, 3, 0.0293470286134, 13, 3, 0.01100513573, 4, 3, 0.316947909024, 
10, 3, 0.17608217168, 8, 3, 0.0880410858401
*EQUATION
2
131, 3, -1.0, 390, 3, 1.0
*EQUATION
2
404, 1, -1.0, 5, 1, 1.0
*EQUATION
2
132, 1, -1.0, 404, 1, 1.0
*EQUATION
2
404, 2, -1.0, 5, 2, 1.0
*EQUATION
2
132, 2, -1.0, 404, 2, 1.0
*EQUATION
2
404, 3, -1.0, 5, 3, 1.0
*EQUATION
2
132, 3, -1.0, 404, 3, 1.0
*EQUATION
8
380, 1, -1.0, 1, 1, 0.26412325752, 3, 1, 0.0293470286134, 
11, 1, 0.114453411592, 13, 1, 0.01100513573, 2, 1, 0.17608217168, 
6, 1, 0.316947909024, 12, 1, 0.0880410858401
*EQUATION
2
161, 1, -1.0, 380, 1, 1.0
*EQUATION
8
380, 2, -1.0, 1, 2, 0.26412325752, 3, 2, 0.0293470286134, 
11, 2, 0.114453411592, 13, 2, 0.01100513573, 2, 2, 0.17608217168, 
6, 2, 0.316947909024, 12, 2, 0.0880410858401
*EQUATION
2
161, 2, -1.0, 380, 2, 1.0
*EQUATION
8
380, 3, -1.0, 1, 3, 0.26412325752, 3, 3, 0.0293470286134, 
11, 3, 0.114453411592, 13, 3, 0.01100513573, 2, 3, 0.17608217168, 
6, 3, 0.316947909024, 12, 3, 0.0880410858401
*EQUATION
2
161, 3, -1.0, 380, 3, 1.0
*EQUATION
9
385, 1, -1.0, 3, 1, 0.176470588235, 1, 1, 0.0764705882353, 
13, 1, 0.0764705882353, 11, 1, 0.0352941176471, 2, 1, 0.211764705882, 
8, 1, 0.211764705882, 12, 1, 0.105882352941, 6, 1, 0.105882352941
*EQUATION
2
163, 1, -1.0, 385, 1, 1.0
*EQUATION
9
385, 2, -1.0, 3, 2, 0.176470588235, 1, 2, 0.0764705882353, 
13, 2, 0.0764705882353, 11, 2, 0.0352941176471, 2, 2, 0.211764705882, 
8, 2, 0.211764705882, 12, 2, 0.105882352941, 6, 2, 0.105882352941
*EQUATION
2
163, 2, -1.0, 385, 2, 1.0
*EQUATION
9
385, 3, -1.0, 3, 3, 0.176470588235, 1, 3, 0.0764705882353, 
13, 3, 0.0764705882353, 11, 3, 0.0352941176471, 2, 3, 0.211764705882, 
8, 3, 0.211764705882, 12, 3, 0.105882352941, 6, 3, 0.105882352941
*EQUATION
2
163, 3, -1.0, 385, 3, 1.0
*EQUATION
9
401, 1, -1.0, 3, 1, 0.176470588235, 5, 1, 0.0764705882353, 
13, 1, 0.0764705882353, 15, 1, 0.0352941176471, 4, 1, 0.211764705882, 
8, 1, 0.211764705882, 14, 1, 0.105882352941, 10, 1, 0.105882352941
*EQUATION
2
165, 1, -1.0, 401, 1, 1.0
*EQUATION
9
401, 2, -1.0, 3, 2, 0.176470588235, 5, 2, 0.0764705882353, 
13, 2, 0.0764705882353, 15, 2, 0.0352941176471, 4, 2, 0.211764705882, 
8, 2, 0.211764705882, 14, 2, 0.105882352941, 10, 2, 0.105882352941
*EQUATION
2
165, 2, -1.0, 401, 2, 1.0
*EQUATION
9
401, 3, -1.0, 3, 3, 0.176470588235, 5, 3, 0.0764705882353, 
13, 3, 0.0764705882353, 15, 3, 0.0352941176471, 4, 3, 0.211764705882, 
8, 3, 0.211764705882, 14, 3, 0.105882352941, 10, 3, 0.105882352941
*EQUATION
2
165, 3, -1.0, 401, 3, 1.0
*EQUATION
8
394, 1, -1.0, 5, 1, 0.26412325752, 3, 1, 0.0293470286134, 
15, 1, 0.114453411592, 13, 1, 0.01100513573, 4, 1, 0.17608217168, 
10, 1, 0.316947909024, 14, 1, 0.0880410858401
*EQUATION
2
167, 1, -1.0, 394, 1, 1.0
*EQUATION
8
394, 2, -1.0, 5, 2, 0.26412325752, 3, 2, 0.0293470286134, 
15, 2, 0.114453411592, 13, 2, 0.01100513573, 4, 2, 0.17608217168, 
10, 2, 0.316947909024, 14, 2, 0.0880410858401
*EQUATION
2
167, 2, -1.0, 394, 2, 1.0
*EQUATION
8
394, 3, -1.0, 5, 3, 0.26412325752, 3, 3, 0.0293470286134, 
15, 3, 0.114453411592, 13, 3, 0.01100513573, 4, 3, 0.17608217168, 
10, 3, 0.316947909024, 14, 3, 0.0880410858401
*EQUATION
2
167, 3, -1.0, 394, 3, 1.0
*EQUATION
8
391, 1, -1.0, 11, 1, 0.26412325752, 13, 1, 0.0293470286134, 
1, 1, 0.114453411592, 3, 1, 0.01100513573, 12, 1, 0.17608217168, 
6, 1, 0.316947909024, 2, 1, 0.0880410858401
*EQUATION
2
196, 1, -1.0, 391, 1, 1.0
*EQUATION
8
391, 2, -1.0, 11, 2, 0.26412325752, 13, 2, 0.0293470286134, 
1, 2, 0.114453411592, 3, 2, 0.01100513573, 12, 2, 0.17608217168, 
6, 2, 0.316947909024, 2, 2, 0.0880410858401
*EQUATION
2
196, 2, -1.0, 391, 2, 1.0
*EQUATION
8
391, 3, -1.0, 11, 3, 0.26412325752, 13, 3, 0.0293470286134, 
1, 3, 0.114453411592, 3, 3, 0.01100513573, 12, 3, 0.17608217168, 
6, 3, 0.316947909024, 2, 3, 0.0880410858401
*EQUATION
2
196, 3, -1.0, 391, 3, 1.0
*EQUATION
9
389, 1, -1.0, 11, 1, 0.176470588235, 13, 1, 0.0764705882353, 
1, 1, 0.0764705882353, 3, 1, 0.0352941176471, 12, 1, 0.211764705882, 
6, 1, 0.211764705882, 2, 1, 0.105882352941, 8, 1, 0.105882352941
*EQUATION
2
197, 1, -1.0, 389, 1, 1.0
*EQUATION
9
389, 2, -1.0, 11, 2, 0.176470588235, 13, 2, 0.0764705882353, 
1, 2, 0.0764705882353, 3, 2, 0.0352941176471, 12, 2, 0.211764705882, 
6, 2, 0.211764705882, 2, 2, 0.105882352941, 8, 2, 0.105882352941
*EQUATION
2
197, 2, -1.0, 389, 2, 1.0
*EQUATION
9
389, 3, -1.0, 11, 3, 0.176470588235, 13, 3, 0.0764705882353, 
1, 3, 0.0764705882353, 3, 3, 0.0352941176471, 12, 3, 0.211764705882, 
6, 3, 0.211764705882, 2, 3, 0.105882352941, 8, 3, 0.105882352941
*EQUATION
2
197, 3, -1.0, 389, 3, 1.0
*EQUATION
9
383, 1, -1.0, 13, 1, 0.176470588235, 11, 1, 0.0764705882353, 
3, 1, 0.0764705882353, 1, 1, 0.0352941176471, 12, 1, 0.211764705882, 
8, 1, 0.211764705882, 2, 1, 0.105882352941, 6, 1, 0.105882352941
*EQUATION
2
198, 1, -1.0, 383, 1, 1.0
*EQUATION
9
383, 2, -1.0, 13, 2, 0.176470588235, 11, 2, 0.0764705882353, 
3, 2, 0.0764705882353, 1, 2, 0.0352941176471, 12, 2, 0.211764705882, 
8, 2, 0.211764705882, 2, 2, 0.105882352941, 6, 2, 0.105882352941
*EQUATION
2
198, 2, -1.0, 383, 2, 1.0
*EQUATION
9
383, 3, -1.0, 13, 3, 0.176470588235, 11, 3, 0.0764705882353, 
3, 3, 0.0764705882353, 1, 3, 0.0352941176471, 12, 3, 0.211764705882, 
8, 3, 0.211764705882, 2, 3, 0.105882352941, 6, 3, 0.105882352941
*EQUATION
2
198, 3, -1.0, 383, 3, 1.0
*EQUATION
8
378, 1, -1.0, 13, 1, 0.26412325752, 11, 1, 0.0293470286134, 
3, 1, 0.114453411592, 1, 1, 0.01100513573, 12, 1, 0.17608217168, 
8, 1, 0.316947909024, 2, 1, 0.0880410858401
*EQUATION
2
199, 1, -1.0, 378, 1, 1.0
*EQUATION
8
378, 2, -1.0, 13, 2, 0.26412325752, 11, 2, 0.0293470286134, 
3, 2, 0.114453411592, 1, 2, 0.01100513573, 12, 2, 0.17608217168, 
8, 2, 0.316947909024, 2, 2, 0.0880410858401
*EQUATION
2
199, 2, -1.0, 378, 2, 1.0
*EQUATION
8
378, 3, -1.0, 13, 3, 0.26412325752, 11, 3, 0.0293470286134, 
3, 3, 0.114453411592, 1, 3, 0.01100513573, 12, 3, 0.17608217168, 
8, 3, 0.316947909024, 2, 3, 0.0880410858401
*EQUATION
2
199, 3, -1.0, 378, 3, 1.0
*EQUATION
9
384, 1, -1.0, 13, 1, 0.176470588235, 15, 1, 0.0764705882353, 
3, 1, 0.0764705882353, 5, 1, 0.0352941176471, 14, 1, 0.211764705882, 
8, 1, 0.211764705882, 4, 1, 0.105882352941, 10, 1, 0.105882352941
*EQUATION
2
200, 1, -1.0, 384, 1, 1.0
*EQUATION
9
384, 2, -1.0, 13, 2, 0.176470588235, 15, 2, 0.0764705882353, 
3, 2, 0.0764705882353, 5, 2, 0.0352941176471, 14, 2, 0.211764705882, 
8, 2, 0.211764705882, 4, 2, 0.105882352941, 10, 2, 0.105882352941
*EQUATION
2
200, 2, -1.0, 384, 2, 1.0
*EQUATION
9
384, 3, -1.0, 13, 3, 0.176470588235, 15, 3, 0.0764705882353, 
3, 3, 0.0764705882353, 5, 3, 0.0352941176471, 14, 3, 0.211764705882, 
8, 3, 0.211764705882, 4, 3, 0.105882352941, 10, 3, 0.105882352941
*EQUATION
2
200, 3, -1.0, 384, 3, 1.0
*EQUATION
9
393, 1, -1.0, 15, 1, 0.176470588235, 13, 1, 0.0764705882353, 
5, 1, 0.0764705882353, 3, 1, 0.0352941176471, 14, 1, 0.211764705882, 
10, 1, 0.211764705882, 4, 1, 0.105882352941, 8, 1, 0.105882352941
*EQUATION
2
201, 1, -1.0, 393, 1, 1.0
*EQUATION
9
393, 2, -1.0, 15, 2, 0.176470588235, 13, 2, 0.0764705882353, 
5, 2, 0.0764705882353, 3, 2, 0.0352941176471, 14, 2, 0.211764705882, 
10, 2, 0.211764705882, 4, 2, 0.105882352941, 8, 2, 0.105882352941
*EQUATION
2
201, 2, -1.0, 393, 2, 1.0
*EQUATION
9
393, 3, -1.0, 15, 3, 0.176470588235, 13, 3, 0.0764705882353, 
5, 3, 0.0764705882353, 3, 3, 0.0352941176471, 14, 3, 0.211764705882, 
10, 3, 0.211764705882, 4, 3, 0.105882352941, 8, 3, 0.105882352941
*EQUATION
2
201, 3, -1.0, 393, 3, 1.0
*EQUATION
8
392, 1, -1.0, 15, 1, 0.26412325752, 13, 1, 0.0293470286134, 
5, 1, 0.114453411592, 3, 1, 0.01100513573, 14, 1, 0.17608217168, 
10, 1, 0.316947909024, 4, 1, 0.0880410858401
*EQUATION
2
202, 1, -1.0, 392, 1, 1.0
*EQUATION
8
392, 2, -1.0, 15, 2, 0.26412325752, 13, 2, 0.0293470286134, 
5, 2, 0.114453411592, 3, 2, 0.01100513573, 14, 2, 0.17608217168, 
10, 2, 0.316947909024, 4, 2, 0.0880410858401
*EQUATION
2
202, 2, -1.0, 392, 2, 1.0
*EQUATION
8
392, 3, -1.0, 15, 3, 0.26412325752, 13, 3, 0.0293470286134, 
5, 3, 0.114453411592, 3, 3, 0.01100513573, 14, 3, 0.17608217168, 
10, 3, 0.316947909024, 4, 3, 0.0880410858401
*EQUATION
2
202, 3, -1.0, 392, 3, 1.0
*EQUATION
2
387, 1, -1.0, 11, 1, 1.0
*EQUATION
2
231, 1, -1.0, 387, 1, 1.0
*EQUATION
2
387, 2, -1.0, 11, 2, 1.0
*EQUATION
2
231, 2, -1.0, 387, 2, 1.0
*EQUATION
2
387, 3, -1.0, 11, 3, 1.0
*EQUATION
2
231, 3, -1.0, 387, 3, 1.0
*EQUATION
8
402, 1, -1.0, 13, 1, 0.26412325752, 11, 1, 0.114453411592, 
3, 1, 0.0293470286134, 1, 1, 0.01100513573, 12, 1, 0.316947909024, 
8, 1, 0.17608217168, 6, 1, 0.0880410858401
*EQUATION
2
233, 1, -1.0, 402, 1, 1.0
*EQUATION
8
402, 2, -1.0, 13, 2, 0.26412325752, 11, 2, 0.114453411592, 
3, 2, 0.0293470286134, 1, 2, 0.01100513573, 12, 2, 0.316947909024, 
8, 2, 0.17608217168, 6, 2, 0.0880410858401
*EQUATION
2
233, 2, -1.0, 402, 2, 1.0
*EQUATION
8
402, 3, -1.0, 13, 3, 0.26412325752, 11, 3, 0.114453411592, 
3, 3, 0.0293470286134, 1, 3, 0.01100513573, 12, 3, 0.316947909024, 
8, 3, 0.17608217168, 6, 3, 0.0880410858401
*EQUATION
2
233, 3, -1.0, 402, 3, 1.0
*EQUATION
8
397, 1, -1.0, 13, 1, 0.26412325752, 15, 1, 0.114453411592, 
23, 1, 0.0293470286134, 25, 1, 0.01100513573, 14, 1, 0.316947909024, 
18, 1, 0.17608217168, 20, 1, 0.0880410858401
*EQUATION
2
235, 1, -1.0, 397, 1, 1.0
*EQUATION
8
397, 2, -1.0, 13, 2, 0.26412325752, 15, 2, 0.114453411592, 
23, 2, 0.0293470286134, 25, 2, 0.01100513573, 14, 2, 0.316947909024, 
18, 2, 0.17608217168, 20, 2, 0.0880410858401
*EQUATION
2
235, 2, -1.0, 397, 2, 1.0
*EQUATION
8
397, 3, -1.0, 13, 3, 0.26412325752, 15, 3, 0.114453411592, 
23, 3, 0.0293470286134, 25, 3, 0.01100513573, 14, 3, 0.316947909024, 
18, 3, 0.17608217168, 20, 3, 0.0880410858401
*EQUATION
2
235, 3, -1.0, 397, 3, 1.0
*EQUATION
2
372, 1, -1.0, 15, 1, 1.0
*EQUATION
2
237, 1, -1.0, 372, 1, 1.0
*EQUATION
2
372, 2, -1.0, 15, 2, 1.0
*EQUATION
2
237, 2, -1.0, 372, 2, 1.0
*EQUATION
2
372, 3, -1.0, 15, 3, 1.0
*EQUATION
2
237, 3, -1.0, 372, 3, 1.0
*EQUATION
8
379, 1, -1.0, 11, 1, 0.26412325752, 13, 1, 0.0293470286134, 
21, 1, 0.114453411592, 23, 1, 0.01100513573, 12, 1, 0.17608217168, 
16, 1, 0.316947909024, 22, 1, 0.0880410858401
*EQUATION
2
266, 1, -1.0, 379, 1, 1.0
*EQUATION
8
379, 2, -1.0, 11, 2, 0.26412325752, 13, 2, 0.0293470286134, 
21, 2, 0.114453411592, 23, 2, 0.01100513573, 12, 2, 0.17608217168, 
16, 2, 0.316947909024, 22, 2, 0.0880410858401
*EQUATION
2
266, 2, -1.0, 379, 2, 1.0
*EQUATION
8
379, 3, -1.0, 11, 3, 0.26412325752, 13, 3, 0.0293470286134, 
21, 3, 0.114453411592, 23, 3, 0.01100513573, 12, 3, 0.17608217168, 
16, 3, 0.316947909024, 22, 3, 0.0880410858401
*EQUATION
2
266, 3, -1.0, 379, 3, 1.0
*EQUATION
9
371, 1, -1.0, 11, 1, 0.176470588235, 13, 1, 0.0764705882353, 
21, 1, 0.0764705882353, 23, 1, 0.0352941176471, 12, 1, 0.211764705882, 
16, 1, 0.211764705882, 22, 1, 0.105882352941, 18, 1, 0.105882352941
*EQUATION
2
267, 1, -1.0, 371, 1, 1.0
*EQUATION
9
371, 2, -1.0, 11, 2, 0.176470588235, 13, 2, 0.0764705882353, 
21, 2, 0.0764705882353, 23, 2, 0.0352941176471, 12, 2, 0.211764705882, 
16, 2, 0.211764705882, 22, 2, 0.105882352941, 18, 2, 0.105882352941
*EQUATION
2
267, 2, -1.0, 371, 2, 1.0
*EQUATION
9
371, 3, -1.0, 11, 3, 0.176470588235, 13, 3, 0.0764705882353, 
21, 3, 0.0764705882353, 23, 3, 0.0352941176471, 12, 3, 0.211764705882, 
16, 3, 0.211764705882, 22, 3, 0.105882352941, 18, 3, 0.105882352941
*EQUATION
2
267, 3, -1.0, 371, 3, 1.0
*EQUATION
9
375, 1, -1.0, 13, 1, 0.176470588235, 11, 1, 0.0764705882353, 
23, 1, 0.0764705882353, 21, 1, 0.0352941176471, 12, 1, 0.211764705882, 
18, 1, 0.211764705882, 22, 1, 0.105882352941, 16, 1, 0.105882352941
*EQUATION
2
268, 1, -1.0, 375, 1, 1.0
*EQUATION
9
375, 2, -1.0, 13, 2, 0.176470588235, 11, 2, 0.0764705882353, 
23, 2, 0.0764705882353, 21, 2, 0.0352941176471, 12, 2, 0.211764705882, 
18, 2, 0.211764705882, 22, 2, 0.105882352941, 16, 2, 0.105882352941
*EQUATION
2
268, 2, -1.0, 375, 2, 1.0
*EQUATION
9
375, 3, -1.0, 13, 3, 0.176470588235, 11, 3, 0.0764705882353, 
23, 3, 0.0764705882353, 21, 3, 0.0352941176471, 12, 3, 0.211764705882, 
18, 3, 0.211764705882, 22, 3, 0.105882352941, 16, 3, 0.105882352941
*EQUATION
2
268, 3, -1.0, 375, 3, 1.0
*EQUATION
8
399, 1, -1.0, 13, 1, 0.26412325752, 11, 1, 0.0293470286134, 
23, 1, 0.114453411592, 21, 1, 0.01100513573, 12, 1, 0.17608217168, 
18, 1, 0.316947909024, 22, 1, 0.0880410858401
*EQUATION
2
269, 1, -1.0, 399, 1, 1.0
*EQUATION
8
399, 2, -1.0, 13, 2, 0.26412325752, 11, 2, 0.0293470286134, 
23, 2, 0.114453411592, 21, 2, 0.01100513573, 12, 2, 0.17608217168, 
18, 2, 0.316947909024, 22, 2, 0.0880410858401
*EQUATION
2
269, 2, -1.0, 399, 2, 1.0
*EQUATION
8
399, 3, -1.0, 13, 3, 0.26412325752, 11, 3, 0.0293470286134, 
23, 3, 0.114453411592, 21, 3, 0.01100513573, 12, 3, 0.17608217168, 
18, 3, 0.316947909024, 22, 3, 0.0880410858401
*EQUATION
2
269, 3, -1.0, 399, 3, 1.0
*EQUATION
9
373, 1, -1.0, 13, 1, 0.176470588235, 15, 1, 0.0764705882353, 
23, 1, 0.0764705882353, 25, 1, 0.0352941176471, 14, 1, 0.211764705882, 
18, 1, 0.211764705882, 24, 1, 0.105882352941, 20, 1, 0.105882352941
*EQUATION
2
270, 1, -1.0, 373, 1, 1.0
*EQUATION
9
373, 2, -1.0, 13, 2, 0.176470588235, 15, 2, 0.0764705882353, 
23, 2, 0.0764705882353, 25, 2, 0.0352941176471, 14, 2, 0.211764705882, 
18, 2, 0.211764705882, 24, 2, 0.105882352941, 20, 2, 0.105882352941
*EQUATION
2
270, 2, -1.0, 373, 2, 1.0
*EQUATION
9
373, 3, -1.0, 13, 3, 0.176470588235, 15, 3, 0.0764705882353, 
23, 3, 0.0764705882353, 25, 3, 0.0352941176471, 14, 3, 0.211764705882, 
18, 3, 0.211764705882, 24, 3, 0.105882352941, 20, 3, 0.105882352941
*EQUATION
2
270, 3, -1.0, 373, 3, 1.0
*EQUATION
9
381, 1, -1.0, 15, 1, 0.176470588235, 13, 1, 0.0764705882353, 
25, 1, 0.0764705882353, 23, 1, 0.0352941176471, 14, 1, 0.211764705882, 
20, 1, 0.211764705882, 24, 1, 0.105882352941, 18, 1, 0.105882352941
*EQUATION
2
271, 1, -1.0, 381, 1, 1.0
*EQUATION
9
381, 2, -1.0, 15, 2, 0.176470588235, 13, 2, 0.0764705882353, 
25, 2, 0.0764705882353, 23, 2, 0.0352941176471, 14, 2, 0.211764705882, 
20, 2, 0.211764705882, 24, 2, 0.105882352941, 18, 2, 0.105882352941
*EQUATION
2
271, 2, -1.0, 381, 2, 1.0
*EQUATION
9
381, 3, -1.0, 15, 3, 0.176470588235, 13, 3, 0.0764705882353, 
25, 3, 0.0764705882353, 23, 3, 0.0352941176471, 14, 3, 0.211764705882, 
20, 3, 0.211764705882, 24, 3, 0.105882352941, 18, 3, 0.105882352941
*EQUATION
2
271, 3, -1.0, 381, 3, 1.0
*EQUATION
8
382, 1, -1.0, 15, 1, 0.26412325752, 13, 1, 0.0293470286134, 
25, 1, 0.114453411592, 23, 1, 0.01100513573, 14, 1, 0.17608217168, 
20, 1, 0.316947909024, 24, 1, 0.0880410858401
*EQUATION
2
272, 1, -1.0, 382, 1, 1.0
*EQUATION
8
382, 2, -1.0, 15, 2, 0.26412325752, 13, 2, 0.0293470286134, 
25, 2, 0.114453411592, 23, 2, 0.01100513573, 14, 2, 0.17608217168, 
20, 2, 0.316947909024, 24, 2, 0.0880410858401
*EQUATION
2
272, 2, -1.0, 382, 2, 1.0
*EQUATION
8
382, 3, -1.0, 15, 3, 0.26412325752, 13, 3, 0.0293470286134, 
25, 3, 0.114453411592, 23, 3, 0.01100513573, 14, 3, 0.17608217168, 
20, 3, 0.316947909024, 24, 3, 0.0880410858401
*EQUATION
2
272, 3, -1.0, 382, 3, 1.0
*EQUATION
8
374, 1, -1.0, 21, 1, 0.26412325752, 23, 1, 0.0293470286134, 
11, 1, 0.114453411592, 13, 1, 0.01100513573, 22, 1, 0.17608217168, 
16, 1, 0.316947909024, 12, 1, 0.0880410858401
*EQUATION
2
301, 1, -1.0, 374, 1, 1.0
*EQUATION
8
374, 2, -1.0, 21, 2, 0.26412325752, 23, 2, 0.0293470286134, 
11, 2, 0.114453411592, 13, 2, 0.01100513573, 22, 2, 0.17608217168, 
16, 2, 0.316947909024, 12, 2, 0.0880410858401
*EQUATION
2
301, 2, -1.0, 374, 2, 1.0
*EQUATION
8
374, 3, -1.0, 21, 3, 0.26412325752, 23, 3, 0.0293470286134, 
11, 3, 0.114453411592, 13, 3, 0.01100513573, 22, 3, 0.17608217168, 
16, 3, 0.316947909024, 12, 3, 0.0880410858401
*EQUATION
2
301, 3, -1.0, 374, 3, 1.0
*EQUATION
9
386, 1, -1.0, 23, 1, 0.176470588235, 21, 1, 0.0764705882353, 
13, 1, 0.0764705882353, 11, 1, 0.0352941176471, 22, 1, 0.211764705882, 
18, 1, 0.211764705882, 12, 1, 0.105882352941, 16, 1, 0.105882352941
*EQUATION
2
303, 1, -1.0, 386, 1, 1.0
*EQUATION
9
386, 2, -1.0, 23, 2, 0.176470588235, 21, 2, 0.0764705882353, 
13, 2, 0.0764705882353, 11, 2, 0.0352941176471, 22, 2, 0.211764705882, 
18, 2, 0.211764705882, 12, 2, 0.105882352941, 16, 2, 0.105882352941
*EQUATION
2
303, 2, -1.0, 386, 2, 1.0
*EQUATION
9
386, 3, -1.0, 23, 3, 0.176470588235, 21, 3, 0.0764705882353, 
13, 3, 0.0764705882353, 11, 3, 0.0352941176471, 22, 3, 0.211764705882, 
18, 3, 0.211764705882, 12, 3, 0.105882352941, 16, 3, 0.105882352941
*EQUATION
2
303, 3, -1.0, 386, 3, 1.0
*EQUATION
9
407, 1, -1.0, 23, 1, 0.176470588235, 25, 1, 0.0764705882353, 
13, 1, 0.0764705882353, 15, 1, 0.0352941176471, 24, 1, 0.211764705882, 
18, 1, 0.211764705882, 14, 1, 0.105882352941, 20, 1, 0.105882352941
*EQUATION
2
305, 1, -1.0, 407, 1, 1.0
*EQUATION
9
407, 2, -1.0, 23, 2, 0.176470588235, 25, 2, 0.0764705882353, 
13, 2, 0.0764705882353, 15, 2, 0.0352941176471, 24, 2, 0.211764705882, 
18, 2, 0.211764705882, 14, 2, 0.105882352941, 20, 2, 0.105882352941
*EQUATION
2
305, 2, -1.0, 407, 2, 1.0
*EQUATION
9
407, 3, -1.0, 23, 3, 0.176470588235, 25, 3, 0.0764705882353, 
13, 3, 0.0764705882353, 15, 3, 0.0352941176471, 24, 3, 0.211764705882, 
18, 3, 0.211764705882, 14, 3, 0.105882352941, 20, 3, 0.105882352941
*EQUATION
2
305, 3, -1.0, 407, 3, 1.0
*EQUATION
8
396, 1, -1.0, 25, 1, 0.26412325752, 23, 1, 0.0293470286134, 
15, 1, 0.114453411592, 13, 1, 0.01100513573, 24, 1, 0.17608217168, 
20, 1, 0.316947909024, 14, 1, 0.0880410858401
*EQUATION
2
307, 1, -1.0, 396, 1, 1.0
*EQUATION
8
396, 2, -1.0, 25, 2, 0.26412325752, 23, 2, 0.0293470286134, 
15, 2, 0.114453411592, 13, 2, 0.01100513573, 24, 2, 0.17608217168, 
20, 2, 0.316947909024, 14, 2, 0.0880410858401
*EQUATION
2
307, 2, -1.0, 396, 2, 1.0
*EQUATION
8
396, 3, -1.0, 25, 3, 0.26412325752, 23, 3, 0.0293470286134, 
15, 3, 0.114453411592, 13, 3, 0.01100513573, 24, 3, 0.17608217168, 
20, 3, 0.316947909024, 14, 3, 0.0880410858401
*EQUATION
2
307, 3, -1.0, 396, 3, 1.0
*EQUATION
2
408, 1, -1.0, 21, 1, 1.0
*EQUATION
2
336, 1, -1.0, 408, 1, 1.0
*EQUATION
2
408, 2, -1.0, 21, 2, 1.0
*EQUATION
2
336, 2, -1.0, 408, 2, 1.0
*EQUATION
2
408, 3, -1.0, 21, 3, 1.0
*EQUATION
2
336, 3, -1.0, 408, 3, 1.0
*EQUATION
8
410, 1, -1.0, 21, 1, 0.26412325752, 23, 1, 0.114453411592, 
11, 1, 0.0293470286134, 13, 1, 0.01100513573, 22, 1, 0.316947909024, 
16, 1, 0.17608217168, 18, 1, 0.0880410858401
*EQUATION
2
337, 1, -1.0, 410, 1, 1.0
*EQUATION
8
410, 2, -1.0, 21, 2, 0.26412325752, 23, 2, 0.114453411592, 
11, 2, 0.0293470286134, 13, 2, 0.01100513573, 22, 2, 0.316947909024, 
16, 2, 0.17608217168, 18, 2, 0.0880410858401
*EQUATION
2
337, 2, -1.0, 410, 2, 1.0
*EQUATION
8
410, 3, -1.0, 21, 3, 0.26412325752, 23, 3, 0.114453411592, 
11, 3, 0.0293470286134, 13, 3, 0.01100513573, 22, 3, 0.316947909024, 
16, 3, 0.17608217168, 18, 3, 0.0880410858401
*EQUATION
2
337, 3, -1.0, 410, 3, 1.0
*EQUATION
8
405, 1, -1.0, 23, 1, 0.26412325752, 21, 1, 0.114453411592, 
13, 1, 0.0293470286134, 11, 1, 0.01100513573, 22, 1, 0.316947909024, 
18, 1, 0.17608217168, 16, 1, 0.0880410858401
*EQUATION
2
338, 1, -1.0, 405, 1, 1.0
*EQUATION
8
405, 2, -1.0, 23, 2, 0.26412325752, 21, 2, 0.114453411592, 
13, 2, 0.0293470286134, 11, 2, 0.01100513573, 22, 2, 0.316947909024, 
18, 2, 0.17608217168, 16, 2, 0.0880410858401
*EQUATION
2
338, 2, -1.0, 405, 2, 1.0
*EQUATION
8
405, 3, -1.0, 23, 3, 0.26412325752, 21, 3, 0.114453411592, 
13, 3, 0.0293470286134, 11, 3, 0.01100513573, 22, 3, 0.316947909024, 
18, 3, 0.17608217168, 16, 3, 0.0880410858401
*EQUATION
2
338, 3, -1.0, 405, 3, 1.0
*EQUATION
2
403, 1, -1.0, 23, 1, 1.0
*EQUATION
2
339, 1, -1.0, 403, 1, 1.0
*EQUATION
2
403, 2, -1.0, 23, 2, 1.0
*EQUATION
2
339, 2, -1.0, 403, 2, 1.0
*EQUATION
2
403, 3, -1.0, 23, 3, 1.0
*EQUATION
2
339, 3, -1.0, 403, 3, 1.0
*EQUATION
8
376, 1, -1.0, 23, 1, 0.26412325752, 25, 1, 0.114453411592, 
13, 1, 0.0293470286134, 15, 1, 0.01100513573, 24, 1, 0.316947909024, 
18, 1, 0.17608217168, 20, 1, 0.0880410858401
*EQUATION
2
340, 1, -1.0, 376, 1, 1.0
*EQUATION
8
376, 2, -1.0, 23, 2, 0.26412325752, 25, 2, 0.114453411592, 
13, 2, 0.0293470286134, 15, 2, 0.01100513573, 24, 2, 0.316947909024, 
18, 2, 0.17608217168, 20, 2, 0.0880410858401
*EQUATION
2
340, 2, -1.0, 376, 2, 1.0
*EQUATION
8
376, 3, -1.0, 23, 3, 0.26412325752, 25, 3, 0.114453411592, 
13, 3, 0.0293470286134, 15, 3, 0.01100513573, 24, 3, 0.316947909024, 
18, 3, 0.17608217168, 20, 3, 0.0880410858401
*EQUATION
2
340, 3, -1.0, 376, 3, 1.0
*EQUATION
8
400, 1, -1.0, 25, 1, 0.26412325752, 23, 1, 0.114453411592, 
15, 1, 0.0293470286134, 13, 1, 0.01100513573, 24, 1, 0.316947909024, 
20, 1, 0.17608217168, 18, 1, 0.0880410858401
*EQUATION
2
341, 1, -1.0, 400, 1, 1.0
*EQUATION
8
400, 2, -1.0, 25, 2, 0.26412325752, 23, 2, 0.114453411592, 
15, 2, 0.0293470286134, 13, 2, 0.01100513573, 24, 2, 0.316947909024, 
20, 2, 0.17608217168, 18, 2, 0.0880410858401
*EQUATION
2
341, 2, -1.0, 400, 2, 1.0
*EQUATION
8
400, 3, -1.0, 25, 3, 0.26412325752, 23, 3, 0.114453411592, 
15, 3, 0.0293470286134, 13, 3, 0.01100513573, 24, 3, 0.316947909024, 
20, 3, 0.17608217168, 18, 3, 0.0880410858401
*EQUATION
2
341, 3, -1.0, 400, 3, 1.0
*EQUATION
2
398, 1, -1.0, 25, 1, 1.0
*EQUATION
2
342, 1, -1.0, 398, 1, 1.0
*EQUATION
2
398, 2, -1.0, 25, 2, 1.0
*EQUATION
2
342, 2, -1.0, 398, 2, 1.0
*EQUATION
2
398, 3, -1.0, 25, 3, 1.0
*EQUATION
2
342, 3, -1.0, 398, 3, 1.0
** <BEGIN> ~-~~-~~-~~-~~-~~-~~-~~-~~-~~-~~-~~-~~-~~-~~-~ EA_MESH ELEMENTS
*ELEMENT, TYPE=C3D20R, ELSET=E1
1, 1, 51, 61, 11, 3, 53, 63, 13, 26, 56, 36, 6, 
28, 58, 38, 8, 2, 52, 62, 12
*ELEMENT, TYPE=C3D20R, ELSET=E2
2, 3, 53, 63, 13, 5, 55, 65, 15, 28, 58, 38, 8, 
30, 60, 40, 10, 4, 54, 64, 14
*ELEMENT, TYPE=C3D20R, ELSET=E3
3, 11, 61, 71, 21, 13, 63, 73, 23, 36, 66, 46, 16, 
38, 68, 48, 18, 12, 62, 72, 22
*ELEMENT, TYPE=C3D20R, ELSET=E4
4, 13, 63, 73, 23, 15, 65, 75, 25, 38, 68, 48, 18, 
40, 70, 50, 20, 14, 64, 74, 24
*ELEMENT, TYPE=C3D20R, ELSET=E5
5, 51, 101, 111, 61, 53, 103, 113, 63, 76, 106, 86, 56, 
78, 108, 88, 58, 52, 102, 112, 62
*ELEMENT, TYPE=C3D20R, ELSET=E6
6, 53, 103, 113, 63, 55, 105, 115, 65, 78, 108, 88, 58, 
80, 110, 90, 60, 54, 104, 114, 64
*ELEMENT, TYPE=C3D20R, ELSET=E7
7, 61, 111, 121, 71, 63, 113, 123, 73, 86, 116, 96, 66, 
88, 118, 98, 68, 62, 112, 122, 72
*ELEMENT, TYPE=C3D20R, ELSET=E8
8, 63, 113, 123, 73, 65, 115, 125, 75, 88, 118, 98, 68, 
90, 120, 100, 70, 64, 114, 124, 74
** <END> ~-~~-~~-~~-~~-~~-~~-~~-~~-~~-~~-~~-~~-~~-~~-~ EA_MESH ELEMENTS
** <BEGIN> ~-~~-~~-~~-~~-~~-~~-~~-~~-~~-~~-~~-~~-~~-~~-~ EB_MESH ELEMENTS
*ELEMENT, TYPE=C3D20R, ELSET=E9
9, 126, 196, 210, 140, 128, 198, 212, 142, 161, 203, 175, 133, 
163, 205, 177, 135, 127, 197, 211, 141
*ELEMENT, TYPE=C3D20R, ELSET=E10
10, 128, 198, 212, 142, 130, 200, 214, 144, 163, 205, 177, 135, 
165, 207, 179, 137, 129, 199, 213, 143
*ELEMENT, TYPE=C3D20R, ELSET=E11
11, 130, 200, 214, 144, 132, 202, 216, 146, 165, 207, 179, 137, 
167, 209, 181, 139, 131, 201, 215, 145
*ELEMENT, TYPE=C3D20R, ELSET=E12
12, 140, 210, 224, 154, 142, 212, 226, 156, 175, 217, 189, 147, 
177, 219, 191, 149, 141, 211, 225, 155
*ELEMENT, TYPE=C3D20R, ELSET=E13
13, 142, 212, 226, 156, 144, 214, 228, 158, 177, 219, 191, 149, 
179, 221, 193, 151, 143, 213, 227, 157
*ELEMENT, TYPE=C3D20R, ELSET=E14
14, 144, 214, 228, 158, 146, 216, 230, 160, 179, 221, 193, 151, 
181, 223, 195, 153, 145, 215, 229, 159
*ELEMENT, TYPE=C3D20R, ELSET=E15
15, 196, 266, 280, 210, 198, 268, 282, 212, 231, 273, 245, 203, 
233, 275, 247, 205, 197, 267, 281, 211
*ELEMENT, TYPE=C3D20R, ELSET=E16
16, 198, 268, 282, 212, 200, 270, 284, 214, 233, 275, 247, 205, 
235, 277, 249, 207, 199, 269, 283, 213
*ELEMENT, TYPE=C3D20R, ELSET=E17
17, 200, 270, 284, 214, 202, 272, 286, 216, 235, 277, 249, 207, 
237, 279, 251, 209, 201, 271, 285, 215
*ELEMENT, TYPE=C3D20R, ELSET=E18
18, 210, 280, 294, 224, 212, 282, 296, 226, 245, 287, 259, 217, 
247, 289, 261, 219, 211, 281, 295, 225
*ELEMENT, TYPE=C3D20R, ELSET=E19
19, 212, 282, 296, 226, 214, 284, 298, 228, 247, 289, 261, 219, 
249, 291, 263, 221, 213, 283, 297, 227
*ELEMENT, TYPE=C3D20R, ELSET=E20
20, 214, 284, 298, 228, 216, 286, 300, 230, 249, 291, 263, 221, 
251, 293, 265, 223, 215, 285, 299, 229
*ELEMENT, TYPE=C3D20R, ELSET=E21
21, 266, 336, 350, 280, 268, 338, 352, 282, 301, 343, 315, 273, 
303, 345, 317, 275, 267, 337, 351, 281
*ELEMENT, TYPE=C3D20R, ELSET=E22
22, 268, 338, 352, 282, 270, 340, 354, 284, 303, 345, 317, 275, 
305, 347, 319, 277, 269, 339, 353, 283
*ELEMENT, TYPE=C3D20R, ELSET=E23
23, 270, 340, 354, 284, 272, 342, 356, 286, 305, 347, 319, 277, 
307, 349, 321, 279, 271, 341, 355, 285
*ELEMENT, TYPE=C3D20R, ELSET=E24
24, 280, 350, 364, 294, 282, 352, 366, 296, 315, 357, 329, 287, 
317, 359, 331, 289, 281, 351, 365, 295
*ELEMENT, TYPE=C3D20R, ELSET=E25
25, 282, 352, 366, 296, 284, 354, 368, 298, 317, 359, 331, 289, 
319, 361, 333, 291, 283, 353, 367, 297
*ELEMENT, TYPE=C3D20R, ELSET=E26
26, 284, 354, 368, 298, 286, 356, 370, 300, 319, 361, 333, 291, 
321, 363, 335, 293, 285, 355, 369, 299
** <END> ~-~~-~~-~~-~~-~~-~~-~~-~~-~~-~~-~~-~~-~~-~~-~ EB_MESH ELEMENTS
*ELSET, ELSET=EALL
1, 2, 3, 4, 5, 6, 7, 8, 9, 10, 11, 12, 13
14, 15, 16, 17, 18, 19, 20, 21, 22, 23, 24, 25, 26
********************************************************************************
*MATERIAL, NAME=Alloy_713LC_E1
**  ELSET VOL FRAC = 1.0
*DENSITY
0.000748533, -1.0
0.000748533, 1.0
*ELASTIC, TYPE=ENGINEERING CONSTANTS
28873091.7796, 28873091.7796, 28873091.7796, 0.3, 0.3, 0.3, 11105035.2998, 11105035.2998
11105035.2998, -1.0
28865399.0534, 28865399.0534, 28865399.0534, 0.3, 0.3, 0.3, 11102076.559, 11102076.559
11102076.559, 1.0
*EXPANSION, TYPE=ORTHO, ZERO=0.0
5.6e-06, 5.6e-06, 5.6e-06, -1.0
5.6e-06, 5.6e-06, 5.6e-06, 1.0
*SOLID SECTION, ELSET=E1, MATERIAL=Alloy_713LC_E1
*MATERIAL, NAME=Alloy_713LC_E2
**  ELSET VOL FRAC = 1.0
*DENSITY
0.000748533, -1.0
0.000748533, 1.0
*ELASTIC, TYPE=ENGINEERING CONSTANTS
28873091.7796, 28873091.7796, 28873091.7796, 0.3, 0.3, 0.3, 11105035.2998, 11105035.2998
11105035.2998, -1.0
28865399.0534, 28865399.0534, 28865399.0534, 0.3, 0.3, 0.3, 11102076.559, 11102076.559
11102076.559, 1.0
*EXPANSION, TYPE=ORTHO, ZERO=0.0
5.6e-06, 5.6e-06, 5.6e-06, -1.0
5.6e-06, 5.6e-06, 5.6e-06, 1.0
*SOLID SECTION, ELSET=E2, MATERIAL=Alloy_713LC_E2
*MATERIAL, NAME=Alloy_713LC_E3
**  ELSET VOL FRAC = 1.0
*DENSITY
0.000748533, -1.0
0.000748533, 1.0
*ELASTIC, TYPE=ENGINEERING CONSTANTS
28873091.7796, 28873091.7796, 28873091.7796, 0.3, 0.3, 0.3, 11105035.2998, 11105035.2998
11105035.2998, -1.0
28865399.0534, 28865399.0534, 28865399.0534, 0.3, 0.3, 0.3, 11102076.559, 11102076.559
11102076.559, 1.0
*EXPANSION, TYPE=ORTHO, ZERO=0.0
5.6e-06, 5.6e-06, 5.6e-06, -1.0
5.6e-06, 5.6e-06, 5.6e-06, 1.0
*SOLID SECTION, ELSET=E3, MATERIAL=Alloy_713LC_E3
*MATERIAL, NAME=Alloy_713LC_E4
**  ELSET VOL FRAC = 1.0
*DENSITY
0.000748533, -1.0
0.000748533, 1.0
*ELASTIC, TYPE=ENGINEERING CONSTANTS
28873091.7796, 28873091.7796, 28873091.7796, 0.3, 0.3, 0.3, 11105035.2998, 11105035.2998
11105035.2998, -1.0
28865399.0534, 28865399.0534, 28865399.0534, 0.3, 0.3, 0.3, 11102076.559, 11102076.559
11102076.559, 1.0
*EXPANSION, TYPE=ORTHO, ZERO=0.0
5.6e-06, 5.6e-06, 5.6e-06, -1.0
5.6e-06, 5.6e-06, 5.6e-06, 1.0
*SOLID SECTION, ELSET=E4, MATERIAL=Alloy_713LC_E4
*MATERIAL, NAME=Alloy_713LC_E5
**  ELSET VOL FRAC = 1.0
*DENSITY
0.000748533, -1.0
0.000748533, 1.0
*ELASTIC, TYPE=ENGINEERING CONSTANTS
28873091.7796, 28873091.7796, 28873091.7796, 0.3, 0.3, 0.3, 11105035.2998, 11105035.2998
11105035.2998, -1.0
28865399.0534, 28865399.0534, 28865399.0534, 0.3, 0.3, 0.3, 11102076.559, 11102076.559
11102076.559, 1.0
*EXPANSION, TYPE=ORTHO, ZERO=0.0
5.6e-06, 5.6e-06, 5.6e-06, -1.0
5.6e-06, 5.6e-06, 5.6e-06, 1.0
*SOLID SECTION, ELSET=E5, MATERIAL=Alloy_713LC_E5
*MATERIAL, NAME=Alloy_713LC_E6
**  ELSET VOL FRAC = 1.0
*DENSITY
0.000748533, -1.0
0.000748533, 1.0
*ELASTIC, TYPE=ENGINEERING CONSTANTS
28873091.7796, 28873091.7796, 28873091.7796, 0.3, 0.3, 0.3, 11105035.2998, 11105035.2998
11105035.2998, -1.0
28865399.0534, 28865399.0534, 28865399.0534, 0.3, 0.3, 0.3, 11102076.559, 11102076.559
11102076.559, 1.0
*EXPANSION, TYPE=ORTHO, ZERO=0.0
5.6e-06, 5.6e-06, 5.6e-06, -1.0
5.6e-06, 5.6e-06, 5.6e-06, 1.0
*SOLID SECTION, ELSET=E6, MATERIAL=Alloy_713LC_E6
*MATERIAL, NAME=Alloy_713LC_E7
**  ELSET VOL FRAC = 1.0
*DENSITY
0.000748533, -1.0
0.000748533, 1.0
*ELASTIC, TYPE=ENGINEERING CONSTANTS
28873091.7796, 28873091.7796, 28873091.7796, 0.3, 0.3, 0.3, 11105035.2998, 11105035.2998
11105035.2998, -1.0
28865399.0534, 28865399.0534, 28865399.0534, 0.3, 0.3, 0.3, 11102076.559, 11102076.559
11102076.559, 1.0
*EXPANSION, TYPE=ORTHO, ZERO=0.0
5.6e-06, 5.6e-06, 5.6e-06, -1.0
5.6e-06, 5.6e-06, 5.6e-06, 1.0
*SOLID SECTION, ELSET=E7, MATERIAL=Alloy_713LC_E7
*MATERIAL, NAME=Alloy_713LC_E8
**  ELSET VOL FRAC = 1.0
*DENSITY
0.000748533, -1.0
0.000748533, 1.0
*ELASTIC, TYPE=ENGINEERING CONSTANTS
28873091.7796, 28873091.7796, 28873091.7796, 0.3, 0.3, 0.3, 11105035.2998, 11105035.2998
11105035.2998, -1.0
28865399.0534, 28865399.0534, 28865399.0534, 0.3, 0.3, 0.3, 11102076.559, 11102076.559
11102076.559, 1.0
*EXPANSION, TYPE=ORTHO, ZERO=0.0
5.6e-06, 5.6e-06, 5.6e-06, -1.0
5.6e-06, 5.6e-06, 5.6e-06, 1.0
*SOLID SECTION, ELSET=E8, MATERIAL=Alloy_713LC_E8
********************************************************************************
*MATERIAL, NAME=Alloy_713LC_E9
**  ELSET VOL FRAC = 1.0
*DENSITY
0.000748533, -1.0
0.000748533, 1.0
*ELASTIC, TYPE=ENGINEERING CONSTANTS
28873091.7796, 28873091.7796, 28873091.7796, 0.3, 0.3, 0.3, 11105035.2998, 11105035.2998
11105035.2998, -1.0
28865399.0534, 28865399.0534, 28865399.0534, 0.3, 0.3, 0.3, 11102076.559, 11102076.559
11102076.559, 1.0
*EXPANSION, TYPE=ORTHO, ZERO=0.0
5.6e-06, 5.6e-06, 5.6e-06, -1.0
5.6e-06, 5.6e-06, 5.6e-06, 1.0
*SOLID SECTION, ELSET=E9, MATERIAL=Alloy_713LC_E9
*MATERIAL, NAME=Alloy_713LC_E10
**  ELSET VOL FRAC = 1.0
*DENSITY
0.000748533, -1.0
0.000748533, 1.0
*ELASTIC, TYPE=ENGINEERING CONSTANTS
28873091.7796, 28873091.7796, 28873091.7796, 0.3, 0.3, 0.3, 11105035.2998, 11105035.2998
11105035.2998, -1.0
28865399.0534, 28865399.0534, 28865399.0534, 0.3, 0.3, 0.3, 11102076.559, 11102076.559
11102076.559, 1.0
*EXPANSION, TYPE=ORTHO, ZERO=0.0
5.6e-06, 5.6e-06, 5.6e-06, -1.0
5.6e-06, 5.6e-06, 5.6e-06, 1.0
*SOLID SECTION, ELSET=E10, MATERIAL=Alloy_713LC_E10
*MATERIAL, NAME=Alloy_713LC_E11
**  ELSET VOL FRAC = 1.0
*DENSITY
0.000748533, -1.0
0.000748533, 1.0
*ELASTIC, TYPE=ENGINEERING CONSTANTS
28873091.7796, 28873091.7796, 28873091.7796, 0.3, 0.3, 0.3, 11105035.2998, 11105035.2998
11105035.2998, -1.0
28865399.0534, 28865399.0534, 28865399.0534, 0.3, 0.3, 0.3, 11102076.559, 11102076.559
11102076.559, 1.0
*EXPANSION, TYPE=ORTHO, ZERO=0.0
5.6e-06, 5.6e-06, 5.6e-06, -1.0
5.6e-06, 5.6e-06, 5.6e-06, 1.0
*SOLID SECTION, ELSET=E11, MATERIAL=Alloy_713LC_E11
*MATERIAL, NAME=Alloy_713LC_E12
**  ELSET VOL FRAC = 1.0
*DENSITY
0.000748533, -1.0
0.000748533, 1.0
*ELASTIC, TYPE=ENGINEERING CONSTANTS
28873091.7796, 28873091.7796, 28873091.7796, 0.3, 0.3, 0.3, 11105035.2998, 11105035.2998
11105035.2998, -1.0
28865399.0534, 28865399.0534, 28865399.0534, 0.3, 0.3, 0.3, 11102076.559, 11102076.559
11102076.559, 1.0
*EXPANSION, TYPE=ORTHO, ZERO=0.0
5.6e-06, 5.6e-06, 5.6e-06, -1.0
5.6e-06, 5.6e-06, 5.6e-06, 1.0
*SOLID SECTION, ELSET=E12, MATERIAL=Alloy_713LC_E12
*MATERIAL, NAME=Alloy_713LC_E13
**  ELSET VOL FRAC = 1.0
*DENSITY
0.000748533, -1.0
0.000748533, 1.0
*ELASTIC, TYPE=ENGINEERING CONSTANTS
28873091.7796, 28873091.7796, 28873091.7796, 0.3, 0.3, 0.3, 11105035.2998, 11105035.2998
11105035.2998, -1.0
28865399.0534, 28865399.0534, 28865399.0534, 0.3, 0.3, 0.3, 11102076.559, 11102076.559
11102076.559, 1.0
*EXPANSION, TYPE=ORTHO, ZERO=0.0
5.6e-06, 5.6e-06, 5.6e-06, -1.0
5.6e-06, 5.6e-06, 5.6e-06, 1.0
*SOLID SECTION, ELSET=E13, MATERIAL=Alloy_713LC_E13
*MATERIAL, NAME=Alloy_713LC_E14
**  ELSET VOL FRAC = 1.0
*DENSITY
0.000748533, -1.0
0.000748533, 1.0
*ELASTIC, TYPE=ENGINEERING CONSTANTS
28873091.7796, 28873091.7796, 28873091.7796, 0.3, 0.3, 0.3, 11105035.2998, 11105035.2998
11105035.2998, -1.0
28865399.0534, 28865399.0534, 28865399.0534, 0.3, 0.3, 0.3, 11102076.559, 11102076.559
11102076.559, 1.0
*EXPANSION, TYPE=ORTHO, ZERO=0.0
5.6e-06, 5.6e-06, 5.6e-06, -1.0
5.6e-06, 5.6e-06, 5.6e-06, 1.0
*SOLID SECTION, ELSET=E14, MATERIAL=Alloy_713LC_E14
*MATERIAL, NAME=Alloy_713LC_E15
**  ELSET VOL FRAC = 1.0
*DENSITY
0.000748533, -1.0
0.000748533, 1.0
*ELASTIC, TYPE=ENGINEERING CONSTANTS
28873091.7796, 28873091.7796, 28873091.7796, 0.3, 0.3, 0.3, 11105035.2998, 11105035.2998
11105035.2998, -1.0
28865399.0534, 28865399.0534, 28865399.0534, 0.3, 0.3, 0.3, 11102076.559, 11102076.559
11102076.559, 1.0
*EXPANSION, TYPE=ORTHO, ZERO=0.0
5.6e-06, 5.6e-06, 5.6e-06, -1.0
5.6e-06, 5.6e-06, 5.6e-06, 1.0
*SOLID SECTION, ELSET=E15, MATERIAL=Alloy_713LC_E15
*MATERIAL, NAME=Alloy_713LC_E16
**  ELSET VOL FRAC = 1.0
*DENSITY
0.000748533, -1.0
0.000748533, 1.0
*ELASTIC, TYPE=ENGINEERING CONSTANTS
28873091.7796, 28873091.7796, 28873091.7796, 0.3, 0.3, 0.3, 11105035.2998, 11105035.2998
11105035.2998, -1.0
28865399.0534, 28865399.0534, 28865399.0534, 0.3, 0.3, 0.3, 11102076.559, 11102076.559
11102076.559, 1.0
*EXPANSION, TYPE=ORTHO, ZERO=0.0
5.6e-06, 5.6e-06, 5.6e-06, -1.0
5.6e-06, 5.6e-06, 5.6e-06, 1.0
*SOLID SECTION, ELSET=E16, MATERIAL=Alloy_713LC_E16
*MATERIAL, NAME=Alloy_713LC_E17
**  ELSET VOL FRAC = 1.0
*DENSITY
0.000748533, -1.0
0.000748533, 1.0
*ELASTIC, TYPE=ENGINEERING CONSTANTS
28873091.7796, 28873091.7796, 28873091.7796, 0.3, 0.3, 0.3, 11105035.2998, 11105035.2998
11105035.2998, -1.0
28865399.0534, 28865399.0534, 28865399.0534, 0.3, 0.3, 0.3, 11102076.559, 11102076.559
11102076.559, 1.0
*EXPANSION, TYPE=ORTHO, ZERO=0.0
5.6e-06, 5.6e-06, 5.6e-06, -1.0
5.6e-06, 5.6e-06, 5.6e-06, 1.0
*SOLID SECTION, ELSET=E17, MATERIAL=Alloy_713LC_E17
*MATERIAL, NAME=Alloy_713LC_E18
**  ELSET VOL FRAC = 1.0
*DENSITY
0.000748533, -1.0
0.000748533, 1.0
*ELASTIC, TYPE=ENGINEERING CONSTANTS
28873091.7796, 28873091.7796, 28873091.7796, 0.3, 0.3, 0.3, 11105035.2998, 11105035.2998
11105035.2998, -1.0
28865399.0534, 28865399.0534, 28865399.0534, 0.3, 0.3, 0.3, 11102076.559, 11102076.559
11102076.559, 1.0
*EXPANSION, TYPE=ORTHO, ZERO=0.0
5.6e-06, 5.6e-06, 5.6e-06, -1.0
5.6e-06, 5.6e-06, 5.6e-06, 1.0
*SOLID SECTION, ELSET=E18, MATERIAL=Alloy_713LC_E18
*MATERIAL, NAME=Alloy_713LC_E19
**  ELSET VOL FRAC = 1.0
*DENSITY
0.000748533, -1.0
0.000748533, 1.0
*ELASTIC, TYPE=ENGINEERING CONSTANTS
28873091.7796, 28873091.7796, 28873091.7796, 0.3, 0.3, 0.3, 11105035.2998, 11105035.2998
11105035.2998, -1.0
28865399.0534, 28865399.0534, 28865399.0534, 0.3, 0.3, 0.3, 11102076.559, 11102076.559
11102076.559, 1.0
*EXPANSION, TYPE=ORTHO, ZERO=0.0
5.6e-06, 5.6e-06, 5.6e-06, -1.0
5.6e-06, 5.6e-06, 5.6e-06, 1.0
*SOLID SECTION, ELSET=E19, MATERIAL=Alloy_713LC_E19
*MATERIAL, NAME=Alloy_713LC_E20
**  ELSET VOL FRAC = 1.0
*DENSITY
0.000748533, -1.0
0.000748533, 1.0
*ELASTIC, TYPE=ENGINEERING CONSTANTS
28873091.7796, 28873091.7796, 28873091.7796, 0.3, 0.3, 0.3, 11105035.2998, 11105035.2998
11105035.2998, -1.0
28865399.0534, 28865399.0534, 28865399.0534, 0.3, 0.3, 0.3, 11102076.559, 11102076.559
11102076.559, 1.0
*EXPANSION, TYPE=ORTHO, ZERO=0.0
5.6e-06, 5.6e-06, 5.6e-06, -1.0
5.6e-06, 5.6e-06, 5.6e-06, 1.0
*SOLID SECTION, ELSET=E20, MATERIAL=Alloy_713LC_E20
*MATERIAL, NAME=Alloy_713LC_E21
**  ELSET VOL FRAC = 1.0
*DENSITY
0.000748533, -1.0
0.000748533, 1.0
*ELASTIC, TYPE=ENGINEERING CONSTANTS
28873091.7796, 28873091.7796, 28873091.7796, 0.3, 0.3, 0.3, 11105035.2998, 11105035.2998
11105035.2998, -1.0
28865399.0534, 28865399.0534, 28865399.0534, 0.3, 0.3, 0.3, 11102076.559, 11102076.559
11102076.559, 1.0
*EXPANSION, TYPE=ORTHO, ZERO=0.0
5.6e-06, 5.6e-06, 5.6e-06, -1.0
5.6e-06, 5.6e-06, 5.6e-06, 1.0
*SOLID SECTION, ELSET=E21, MATERIAL=Alloy_713LC_E21
*MATERIAL, NAME=Alloy_713LC_E22
**  ELSET VOL FRAC = 1.0
*DENSITY
0.000748533, -1.0
0.000748533, 1.0
*ELASTIC, TYPE=ENGINEERING CONSTANTS
28873091.7796, 28873091.7796, 28873091.7796, 0.3, 0.3, 0.3, 11105035.2998, 11105035.2998
11105035.2998, -1.0
28865399.0534, 28865399.0534, 28865399.0534, 0.3, 0.3, 0.3, 11102076.559, 11102076.559
11102076.559, 1.0
*EXPANSION, TYPE=ORTHO, ZERO=0.0
5.6e-06, 5.6e-06, 5.6e-06, -1.0
5.6e-06, 5.6e-06, 5.6e-06, 1.0
*SOLID SECTION, ELSET=E22, MATERIAL=Alloy_713LC_E22
*MATERIAL, NAME=Alloy_713LC_E23
**  ELSET VOL FRAC = 1.0
*DENSITY
0.000748533, -1.0
0.000748533, 1.0
*ELASTIC, TYPE=ENGINEERING CONSTANTS
28873091.7796, 28873091.7796, 28873091.7796, 0.3, 0.3, 0.3, 11105035.2998, 11105035.2998
11105035.2998, -1.0
28865399.0534, 28865399.0534, 28865399.0534, 0.3, 0.3, 0.3, 11102076.559, 11102076.559
11102076.559, 1.0
*EXPANSION, TYPE=ORTHO, ZERO=0.0
5.6e-06, 5.6e-06, 5.6e-06, -1.0
5.6e-06, 5.6e-06, 5.6e-06, 1.0
*SOLID SECTION, ELSET=E23, MATERIAL=Alloy_713LC_E23
*MATERIAL, NAME=Alloy_713LC_E24
**  ELSET VOL FRAC = 1.0
*DENSITY
0.000748533, -1.0
0.000748533, 1.0
*ELASTIC, TYPE=ENGINEERING CONSTANTS
28873091.7796, 28873091.7796, 28873091.7796, 0.3, 0.3, 0.3, 11105035.2998, 11105035.2998
11105035.2998, -1.0
28865399.0534, 28865399.0534, 28865399.0534, 0.3, 0.3, 0.3, 11102076.559, 11102076.559
11102076.559, 1.0
*EXPANSION, TYPE=ORTHO, ZERO=0.0
5.6e-06, 5.6e-06, 5.6e-06, -1.0
5.6e-06, 5.6e-06, 5.6e-06, 1.0
*SOLID SECTION, ELSET=E24, MATERIAL=Alloy_713LC_E24
*MATERIAL, NAME=Alloy_713LC_E25
**  ELSET VOL FRAC = 1.0
*DENSITY
0.000748533, -1.0
0.000748533, 1.0
*ELASTIC, TYPE=ENGINEERING CONSTANTS
28873091.7796, 28873091.7796, 28873091.7796, 0.3, 0.3, 0.3, 11105035.2998, 11105035.2998
11105035.2998, -1.0
28865399.0534, 28865399.0534, 28865399.0534, 0.3, 0.3, 0.3, 11102076.559, 11102076.559
11102076.559, 1.0
*EXPANSION, TYPE=ORTHO, ZERO=0.0
5.6e-06, 5.6e-06, 5.6e-06, -1.0
5.6e-06, 5.6e-06, 5.6e-06, 1.0
*SOLID SECTION, ELSET=E25, MATERIAL=Alloy_713LC_E25
*MATERIAL, NAME=Alloy_713LC_E26
**  ELSET VOL FRAC = 1.0
*DENSITY
0.000748533, -1.0
0.000748533, 1.0
*ELASTIC, TYPE=ENGINEERING CONSTANTS
28873091.7796, 28873091.7796, 28873091.7796, 0.3, 0.3, 0.3, 11105035.2998, 11105035.2998
11105035.2998, -1.0
28865399.0534, 28865399.0534, 28865399.0534, 0.3, 0.3, 0.3, 11102076.559, 11102076.559
11102076.559, 1.0
*EXPANSION, TYPE=ORTHO, ZERO=0.0
5.6e-06, 5.6e-06, 5.6e-06, -1.0
5.6e-06, 5.6e-06, 5.6e-06, 1.0
*SOLID SECTION, ELSET=E26, MATERIAL=Alloy_713LC_E26
********************************************************************************
*INITIAL CONDITIONS, TYPE=TEMPERATURE
NALL, 0.0
********************************************************************************
*BOUNDARY
154, 1
154, 2
154, 3
155, 1
155, 2
155, 3
156, 1
156, 2
156, 3
157, 1
157, 2
157, 3
158, 1
158, 2
158, 3
159, 1
159, 2
159, 3
160, 1
160, 2
** ... 100 like lines cut
*STEP
*STATIC
*DLOAD
2, P2, 10000.0
4, P2, 10000.0
6, P2, 10000.0
8, P2, 10000.0
11, P2, 10000.0
14, P2, 10000.0
17, P2, 10000.0
20, P2, 10000.0
23, P2, 10000.0
26, P2, 10000.0
********************************************************************************
*NODE PRINT, NSET=NALL
U
*NODE FILE, OUTPUT=3D
U
*EL PRINT, ELSET=EALL
S
*EL FILE, OUTPUT=3D
S
*END STEP
********************************************************************************
