*NODE, NSET=C3
       1,          0.,          0.,        -0.5
       2,          0.,          0.,       -0.25
       3,          0.,          0.,          0.
       4,          0.,          0.,        0.25
       5,          0.,          0.,         0.5
       6,          0.,        0.25,        -0.5
       8,          0.,        0.25,          0.
      10,          0.,        0.25,         0.5
      11,          0.,         0.5,        -0.5
      12,          0.,         0.5,       -0.25
      13,          0.,         0.5,          0.
      14,          0.,         0.5,        0.25
      15,          0.,         0.5,         0.5
      16,          0.,        0.75,        -0.5
      18,          0.,        0.75,          0.
      20,          0.,        0.75,         0.5
      21,          0.,          1.,        -0.5
      22,          0.,          1.,       -0.25
      23,          0.,          1.,          0.
      24,          0.,          1.,        0.25
** ... 17 like lines cut
*NODE, NSET=GLOBAL
      46,        0.25,          0.,        -0.5
      48,        0.25,          0.,          0.
      50,        0.25,          0.,         0.5
      52,        0.25,        0.25,       -0.25
      54,        0.25,        0.25,        0.25
      56,        0.25,         0.5,        -0.5
      58,        0.25,         0.5,          0.
      60,        0.25,         0.5,         0.5
      62,        0.25,        0.75,       -0.25
      64,        0.25,        0.75,        0.25
      66,        0.25,          1.,        -0.5
      68,        0.25,          1.,          0.
      70,        0.25,          1.,         0.5
      72,        0.25,        1.25,       -0.25
      74,        0.25,        1.25,        0.25
      76,        0.25,         1.5,        -0.5
      78,        0.25,         1.5,          0.
      80,        0.25,         1.5,         0.5
      82,        0.25,        1.75,       -0.25
      84,        0.25,        1.75,        0.25
** ... 497 like lines cut
*TRANSFORM, NSET=C3, TYPE=R
          0.,          0.,          1.,          0.,          1.,          0.
*ELEMENT, TYPE=C3D20R, ELSET=P1
      1,      1,     91,    101,     11,      3,     93,    103,     13,
             46,     96,     56,      6,     48,     98,     58,      8,
              2,     92,    102,     12
*ELEMENT, TYPE=C3D20R, ELSET=P2
      2,      3,     93,    103,     13,      5,     95,    105,     15,
             48,     98,     58,      8,     50,    100,     60,     10,
              4,     94,    104,     14
*ELEMENT, TYPE=C3D20R, ELSET=P3
      3,     11,    101,    111,     21,     13,    103,    113,     23,
             56,    106,     66,     16,     58,    108,     68,     18,
             12,    102,    112,     22
*ELEMENT, TYPE=C3D20R, ELSET=P4
      4,     13,    103,    113,     23,     15,    105,    115,     25,
             58,    108,     68,     18,     60,    110,     70,     20,
             14,    104,    114,     24
*ELEMENT, TYPE=C3D20R, ELSET=P5
      5,     21,    111,    121,     31,     23,    113,    123,     33,
             66,    116,     76,     26,     68,    118,     78,     28,
             22,    112,    122,     32
*ELEMENT, TYPE=C3D20R, ELSET=P6
      6,     23,    113,    123,     33,     25,    115,    125,     35,
             68,    118,     78,     28,     70,    120,     80,     30,
             24,    114,    124,     34
*ELEMENT, TYPE=C3D20R, ELSET=P7
      7,     31,    121,    131,     41,     33,    123,    133,     43,
             76,    126,     86,     36,     78,    128,     88,     38,
             32,    122,    132,     42
*ELEMENT, TYPE=C3D20R, ELSET=P8
      8,     33,    123,    133,     43,     35,    125,    135,     45,
             78,    128,     88,     38,     80,    130,     90,     40,
             34,    124,    134,     44
*ELEMENT, TYPE=C3D20R, ELSET=P9
      9,     91,    181,    191,    101,     93,    183,    193,    103,
            136,    186,    146,     96,    138,    188,    148,     98,
             92,    182,    192,    102
*ELEMENT, TYPE=C3D20R, ELSET=Pa
     10,     93,    183,    193,    103,     95,    185,    195,    105,
            138,    188,    148,     98,    140,    190,    150,    100,
             94,    184,    194,    104
*ELEMENT, TYPE=C3D20R, ELSET=Pb
     11,    101,    191,    201,    111,    103,    193,    203,    113,
            146,    196,    156,    106,    148,    198,    158,    108,
            102,    192,    202,    112
*ELEMENT, TYPE=C3D20R, ELSET=Pc
     12,    103,    193,    203,    113,    105,    195,    205,    115,
            148,    198,    158,    108,    150,    200,    160,    110,
            104,    194,    204,    114
*ELEMENT, TYPE=C3D20R, ELSET=Pd
     13,    111,    201,    211,    121,    113,    203,    213,    123,
            156,    206,    166,    116,    158,    208,    168,    118,
            112,    202,    212,    122
*ELEMENT, TYPE=C3D20R, ELSET=Pe
     14,    113,    203,    213,    123,    115,    205,    215,    125,
            158,    208,    168,    118,    160,    210,    170,    120,
            114,    204,    214,    124
*ELEMENT, TYPE=C3D20R, ELSET=Pf
     15,    121,    211,    221,    131,    123,    213,    223,    133,
            166,    216,    176,    126,    168,    218,    178,    128,
            122,    212,    222,    132
*ELEMENT, TYPE=C3D20R, ELSET=Pg
     16,    123,    213,    223,    133,    125,    215,    225,    135,
            168,    218,    178,    128,    170,    220,    180,    130,
            124,    214,    224,    134
*ELEMENT, TYPE=C3D20R, ELSET=Ph
     17,    181,    271,    281,    191,    183,    273,    283,    193,
            226,    276,    236,    186,    228,    278,    238,    188,
            182,    272,    282,    192
*ELEMENT, TYPE=C3D20R, ELSET=Pi
     18,    183,    273,    283,    193,    185,    275,    285,    195,
            228,    278,    238,    188,    230,    280,    240,    190,
            184,    274,    284,    194
*ELEMENT, TYPE=C3D20R, ELSET=Pj
     19,    191,    281,    291,    201,    193,    283,    293,    203,
            236,    286,    246,    196,    238,    288,    248,    198,
            192,    282,    292,    202
*ELEMENT, TYPE=C3D20R, ELSET=Pk
     20,    193,    283,    293,    203,    195,    285,    295,    205,
            238,    288,    248,    198,    240,    290,    250,    200,
            194,    284,    294,    204
*ELEMENT, TYPE=C3D20R, ELSET=Pl
     21,    201,    291,    301,    211,    203,    293,    303,    213,
            246,    296,    256,    206,    248,    298,    258,    208,
            202,    292,    302,    212
*ELEMENT, TYPE=C3D20R, ELSET=Pm
     22,    203,    293,    303,    213,    205,    295,    305,    215,
            248,    298,    258,    208,    250,    300,    260,    210,
            204,    294,    304,    214
*ELEMENT, TYPE=C3D20R, ELSET=Pn
     23,    211,    301,    311,    221,    213,    303,    313,    223,
            256,    306,    266,    216,    258,    308,    268,    218,
            212,    302,    312,    222
*ELEMENT, TYPE=C3D20R, ELSET=Po
     24,    213,    303,    313,    223,    215,    305,    315,    225,
            258,    308,    268,    218,    260,    310,    270,    220,
            214,    304,    314,    224
*ELEMENT, TYPE=C3D20R, ELSET=Pp
     25,    271,    361,    371,    281,    273,    363,    373,    283,
            316,    366,    326,    276,    318,    368,    328,    278,
            272,    362,    372,    282
*ELEMENT, TYPE=C3D20R, ELSET=Pq
     26,    273,    363,    373,    283,    275,    365,    375,    285,
            318,    368,    328,    278,    320,    370,    330,    280,
            274,    364,    374,    284
*ELEMENT, TYPE=C3D20R, ELSET=Pr
     27,    281,    371,    381,    291,    283,    373,    383,    293,
            326,    376,    336,    286,    328,    378,    338,    288,
            282,    372,    382,    292
*ELEMENT, TYPE=C3D20R, ELSET=Ps
     28,    283,    373,    383,    293,    285,    375,    385,    295,
            328,    378,    338,    288,    330,    380,    340,    290,
            284,    374,    384,    294
*ELEMENT, TYPE=C3D20R, ELSET=Pt
     29,    291,    381,    391,    301,    293,    383,    393,    303,
            336,    386,    346,    296,    338,    388,    348,    298,
            292,    382,    392,    302
*ELEMENT, TYPE=C3D20R, ELSET=Pu
     30,    293,    383,    393,    303,    295,    385,    395,    305,
            338,    388,    348,    298,    340,    390,    350,    300,
            294,    384,    394,    304
*ELEMENT, TYPE=C3D20R, ELSET=Pv
     31,    301,    391,    401,    311,    303,    393,    403,    313,
            346,    396,    356,    306,    348,    398,    358,    308,
            302,    392,    402,    312
*ELEMENT, TYPE=C3D20R, ELSET=Pw
     32,    303,    393,    403,    313,    305,    395,    405,    315,
            348,    398,    358,    308,    350,    400,    360,    310,
            304,    394,    404,    314
*ELEMENT, TYPE=C3D20R, ELSET=Px
     33,      1,     11,    506,    416,      3,     13,    508,    418,
              6,    501,    461,    411,      8,    503,    463,    413,
              2,     12,    507,    417
*ELEMENT, TYPE=C3D20R, ELSET=Py
     34,      3,     13,    508,    418,      5,     15,    510,    420,
              8,    503,    463,    413,     10,    505,    465,    415,
              4,     14,    509,    419
*ELEMENT, TYPE=C3D20R, ELSET=Pz
     35,    416,    506,    516,    426,    418,    508,    518,    428,
            461,    511,    471,    421,    463,    513,    473,    423,
            417,    507,    517,    427
*ELEMENT, TYPE=C3D20R, ELSET=P10
     36,    418,    508,    518,    428,    420,    510,    520,    430,
            463,    513,    473,    423,    465,    515,    475,    425,
            419,    509,    519,    429
*ELEMENT, TYPE=C3D20R, ELSET=P11
     37,    426,    516,    526,    436,    428,    518,    528,    438,
            471,    521,    481,    431,    473,    523,    483,    433,
            427,    517,    527,    437
*ELEMENT, TYPE=C3D20R, ELSET=P12
     38,    428,    518,    528,    438,    430,    520,    530,    440,
            473,    523,    483,    433,    475,    525,    485,    435,
            429,    519,    529,    439
*ELEMENT, TYPE=C3D20R, ELSET=P13
     39,    436,    526,    536,    446,    438,    528,    538,    448,
            481,    531,    491,    441,    483,    533,    493,    443,
            437,    527,    537,    447
*ELEMENT, TYPE=C3D20R, ELSET=P14
     40,    438,    528,    538,    448,    440,    530,    540,    450,
            483,    533,    493,    443,    485,    535,    495,    445,
            439,    529,    539,    449
*ELEMENT, TYPE=C3D20R, ELSET=P15
     41,     11,     21,    596,    506,     13,     23,    598,    508,
             16,    591,    551,    501,     18,    593,    553,    503,
             12,     22,    597,    507
*ELEMENT, TYPE=C3D20R, ELSET=P16
     42,     13,     23,    598,    508,     15,     25,    600,    510,
             18,    593,    553,    503,     20,    595,    555,    505,
             14,     24,    599,    509
*ELEMENT, TYPE=C3D20R, ELSET=P17
     43,    506,    596,    606,    516,    508,    598,    608,    518,
            551,    601,    561,    511,    553,    603,    563,    513,
            507,    597,    607,    517
*ELEMENT, TYPE=C3D20R, ELSET=P18
     44,    508,    598,    608,    518,    510,    600,    610,    520,
            553,    603,    563,    513,    555,    605,    565,    515,
            509,    599,    609,    519
*ELEMENT, TYPE=C3D20R, ELSET=P19
     45,    516,    606,    616,    526,    518,    608,    618,    528,
            561,    611,    571,    521,    563,    613,    573,    523,
            517,    607,    617,    527
*ELEMENT, TYPE=C3D20R, ELSET=P1a
     46,    518,    608,    618,    528,    520,    610,    620,    530,
            563,    613,    573,    523,    565,    615,    575,    525,
            519,    609,    619,    529
*ELEMENT, TYPE=C3D20R, ELSET=P1b
     47,    526,    616,    626,    536,    528,    618,    628,    538,
            571,    621,    581,    531,    573,    623,    583,    533,
            527,    617,    627,    537
*ELEMENT, TYPE=C3D20R, ELSET=P1c
     48,    528,    618,    628,    538,    530,    620,    630,    540,
            573,    623,    583,    533,    575,    625,    585,    535,
            529,    619,    629,    539
*ELEMENT, TYPE=C3D20R, ELSET=P1d
     49,     21,     31,    686,    596,     23,     33,    688,    598,
             26,    681,    641,    591,     28,    683,    643,    593,
             22,     32,    687,    597
*ELEMENT, TYPE=C3D20R, ELSET=P1e
     50,     23,     33,    688,    598,     25,     35,    690,    600,
             28,    683,    643,    593,     30,    685,    645,    595,
             24,     34,    689,    599
*ELEMENT, TYPE=C3D20R, ELSET=P1f
     51,    596,    686,    696,    606,    598,    688,    698,    608,
            641,    691,    651,    601,    643,    693,    653,    603,
            597,    687,    697,    607
*ELEMENT, TYPE=C3D20R, ELSET=P1g
     52,    598,    688,    698,    608,    600,    690,    700,    610,
            643,    693,    653,    603,    645,    695,    655,    605,
            599,    689,    699,    609
*ELEMENT, TYPE=C3D20R, ELSET=P1h
     53,    606,    696,    706,    616,    608,    698,    708,    618,
            651,    701,    661,    611,    653,    703,    663,    613,
            607,    697,    707,    617
*ELEMENT, TYPE=C3D20R, ELSET=P1i
     54,    608,    698,    708,    618,    610,    700,    710,    620,
            653,    703,    663,    613,    655,    705,    665,    615,
            609,    699,    709,    619
*ELEMENT, TYPE=C3D20R, ELSET=P1j
     55,    616,    706,    716,    626,    618,    708,    718,    628,
            661,    711,    671,    621,    663,    713,    673,    623,
            617,    707,    717,    627
*ELEMENT, TYPE=C3D20R, ELSET=P1k
     56,    618,    708,    718,    628,    620,    710,    720,    630,
            663,    713,    673,    623,    665,    715,    675,    625,
            619,    709,    719,    629
*ELEMENT, TYPE=C3D20R, ELSET=P1l
     57,     31,     41,    776,    686,     33,     43,    778,    688,
             36,    771,    731,    681,     38,    773,    733,    683,
             32,     42,    777,    687
*ELEMENT, TYPE=C3D20R, ELSET=P1m
     58,     33,     43,    778,    688,     35,     45,    780,    690,
             38,    773,    733,    683,     40,    775,    735,    685,
             34,     44,    779,    689
*ELEMENT, TYPE=C3D20R, ELSET=P1n
     59,    686,    776,    786,    696,    688,    778,    788,    698,
            731,    781,    741,    691,    733,    783,    743,    693,
            687,    777,    787,    697
*ELEMENT, TYPE=C3D20R, ELSET=P1o
     60,    688,    778,    788,    698,    690,    780,    790,    700,
            733,    783,    743,    693,    735,    785,    745,    695,
            689,    779,    789,    699
*ELEMENT, TYPE=C3D20R, ELSET=P1p
     61,    696,    786,    796,    706,    698,    788,    798,    708,
            741,    791,    751,    701,    743,    793,    753,    703,
            697,    787,    797,    707
*ELEMENT, TYPE=C3D20R, ELSET=P1q
     62,    698,    788,    798,    708,    700,    790,    800,    710,
            743,    793,    753,    703,    745,    795,    755,    705,
            699,    789,    799,    709
*ELEMENT, TYPE=C3D20R, ELSET=P1r
     63,    706,    796,    806,    716,    708,    798,    808,    718,
            751,    801,    761,    711,    753,    803,    763,    713,
            707,    797,    807,    717
*ELEMENT, TYPE=C3D20R, ELSET=P1s
     64,    708,    798,    808,    718,    710,    800,    810,    720,
            753,    803,    763,    713,    755,    805,    765,    715,
            709,    799,    809,    719
** Femap with NX Nastran Group 2 : ARB_A NSET
*NSET, NSET=G2
1,2,3,4,5,6,8,10,11,12
13,14,15,16,18,20,21,22,23,24
25,26,28,30,31,32,33,34,35,36
38,40,41,42,43,44,45
** Femap with NX Nastran Group 3 : ARB_B NSET
*NSET, NSET=G3
406,407,408,409,410,451,453,455,496,497
498,499,500,541,543,545,586,587,588,589
590,631,633,635,676,677,678,679,680,721
723,725,766,767,768,769,770
** Femap with NX Nastran Group 4 : ARB NSET
*NSET, NSET=G4
1,2,3,4,5,6,8,10,11,12
13,14,15,16,18,20,21,22,23,24
25,26,28,30,31,32,33,34,35,36
38,40,41,42,43,44,45,406,407,408
409,410,451,453,455,496,497,498,499,500
541,543,545,586,587,588,589,590,631,633
635,676,677,678,679,680,721,723,725,766
767,768,769,770
** Femap with NX Nastran Group 5 : EALL ELSET
*ELSET, ELSET=G5, GENERATE
1,64,1
** Femap with NX Nastran Group 6 : A
*NSET, NSET=G6
1,2,3,4,5,6,8,10,11,12
13,14,15,16,18,20,21,22,23,24
25,26,28,30,31,32,33,34,35,36
38,40,41,42,43,44,45,46,48,50
56,58,60,66,68,70,76,78,80,86
88,90,91,92,93,94,95,96,98,100
101,102,103,104,105,106,108,110,111,112
113,114,115,116,118,120,121,122,123,124
125,126,128,130,131,132,133,134,135,136
138,140,146,148,150,156,158,160,166,168
170,176,178,180,181,182,183,184,185,186
188,190,191,192,193,194,195,196,198,200
201,202,203,204,205,206,208,210,211,212
213,214,215,216,218,220,221,222,223,224
225,226,228,230,236,238,240,246,248,250
256,258,260,266,268,270,271,272,273,274
275,276,278,280,281,282,283,284,285,286
288,290,291,292,293,294,295,296,298,300
301,302,303,304,305,306,308,310,311,312
313,314,315,316,318,320,326,328,330,336
** ... 5 like lines cut
** Femap with NX Nastran Group 6 : A
*ELSET, ELSET=G6, GENERATE
1,32,1
** Femap with NX Nastran Group 7 : B
*NSET, NSET=G7
406,407,408,409,410,411,413,415,416,417
418,419,420,421,423,425,426,427,428,429
430,431,433,435,436,437,438,439,440,441
443,445,446,447,448,449,450,451,453,455
461,463,465,471,473,475,481,483,485,491
493,495,496,497,498,499,500,501,503,505
506,507,508,509,510,511,513,515,516,517
518,519,520,521,523,525,526,527,528,529
530,531,533,535,536,537,538,539,540,541
543,545,551,553,555,561,563,565,571,573
575,581,583,585,586,587,588,589,590,591
593,595,596,597,598,599,600,601,603,605
606,607,608,609,610,611,613,615,616,617
618,619,620,621,623,625,626,627,628,629
630,631,633,635,641,643,645,651,653,655
661,663,665,671,673,675,676,677,678,679
680,681,683,685,686,687,688,689,690,691
693,695,696,697,698,699,700,701,703,705
706,707,708,709,710,711,713,715,716,717
718,719,720,721,723,725,731,733,735,741
** ... 5 like lines cut
*NSET, NSET=NALL
C3, GLOBAL
** Femap with NX Nastran Group 7 : B
*ELSET, ELSET=G7, GENERATE
33,64,1
*ELSET, ELSET=OUT_CONT, GENERATE
1,64,1
** Femap with NX Nastran Property 1 : E1
*SOLID SECTION, ELSET=P1, MATERIAL=M1
** Femap with NX Nastran Property 2 : E2
*SOLID SECTION, ELSET=P2, MATERIAL=M2
** Femap with NX Nastran Property 3 : E3
*SOLID SECTION, ELSET=P3, MATERIAL=M3
** Femap with NX Nastran Property 4 : E4
*SOLID SECTION, ELSET=P4, MATERIAL=M4
** Femap with NX Nastran Property 5 : E5
*SOLID SECTION, ELSET=P5, MATERIAL=M5
** Femap with NX Nastran Property 6 : E6
*SOLID SECTION, ELSET=P6, MATERIAL=M6
** Femap with NX Nastran Property 7 : E7
*SOLID SECTION, ELSET=P7, MATERIAL=M7
** Femap with NX Nastran Property 8 : E8
*SOLID SECTION, ELSET=P8, MATERIAL=M8
** Femap with NX Nastran Property 9 : E9
*SOLID SECTION, ELSET=P9, MATERIAL=M9
** Femap with NX Nastran Property 10 : E10
*SOLID SECTION, ELSET=Pa, MATERIAL=Ma
** Femap with NX Nastran Property 11 : E11
*SOLID SECTION, ELSET=Pb, MATERIAL=Mb
** Femap with NX Nastran Property 12 : E12
*SOLID SECTION, ELSET=Pc, MATERIAL=Mc
** Femap with NX Nastran Property 13 : E13
*SOLID SECTION, ELSET=Pd, MATERIAL=Md
** Femap with NX Nastran Property 14 : E14
*SOLID SECTION, ELSET=Pe, MATERIAL=Me
** Femap with NX Nastran Property 15 : E15
*SOLID SECTION, ELSET=Pf, MATERIAL=Mf
** Femap with NX Nastran Property 16 : E16
*SOLID SECTION, ELSET=Pg, MATERIAL=Mg
** Femap with NX Nastran Property 17 : E17
*SOLID SECTION, ELSET=Ph, MATERIAL=Mh
** Femap with NX Nastran Property 18 : E18
*SOLID SECTION, ELSET=Pi, MATERIAL=Mi
** Femap with NX Nastran Property 19 : E19
*SOLID SECTION, ELSET=Pj, MATERIAL=Mj
** Femap with NX Nastran Property 20 : E20
*SOLID SECTION, ELSET=Pk, MATERIAL=Mk
** Femap with NX Nastran Property 21 : E21
*SOLID SECTION, ELSET=Pl, MATERIAL=Ml
** Femap with NX Nastran Property 22 : E22
*SOLID SECTION, ELSET=Pm, MATERIAL=Mm
** Femap with NX Nastran Property 23 : E23
*SOLID SECTION, ELSET=Pn, MATERIAL=Mn
** Femap with NX Nastran Property 24 : E24
*SOLID SECTION, ELSET=Po, MATERIAL=Mo
** Femap with NX Nastran Property 25 : E25
*SOLID SECTION, ELSET=Pp, MATERIAL=Mp
** Femap with NX Nastran Property 26 : E26
*SOLID SECTION, ELSET=Pq, MATERIAL=Mq
** Femap with NX Nastran Property 27 : E27
*SOLID SECTION, ELSET=Pr, MATERIAL=Mr
** Femap with NX Nastran Property 28 : E28
*SOLID SECTION, ELSET=Ps, MATERIAL=Ms
** Femap with NX Nastran Property 29 : E29
*SOLID SECTION, ELSET=Pt, MATERIAL=Mt
** Femap with NX Nastran Property 30 : E30
*SOLID SECTION, ELSET=Pu, MATERIAL=Mu
** Femap with NX Nastran Property 31 : E31
*SOLID SECTION, ELSET=Pv, MATERIAL=Mv
** Femap with NX Nastran Property 32 : E32
*SOLID SECTION, ELSET=Pw, MATERIAL=Mw
** Femap with NX Nastran Property 33 : E33
*SOLID SECTION, ELSET=Px, MATERIAL=Mx
** Femap with NX Nastran Property 34 : E34
*SOLID SECTION, ELSET=Py, MATERIAL=My
** Femap with NX Nastran Property 35 : E35
*SOLID SECTION, ELSET=Pz, MATERIAL=Mz
** Femap with NX Nastran Property 36 : E36
*SOLID SECTION, ELSET=P10, MATERIAL=M10
** Femap with NX Nastran Property 37 : E37
*SOLID SECTION, ELSET=P11, MATERIAL=M11
** Femap with NX Nastran Property 38 : E38
*SOLID SECTION, ELSET=P12, MATERIAL=M12
** Femap with NX Nastran Property 39 : E39
*SOLID SECTION, ELSET=P13, MATERIAL=M13
** Femap with NX Nastran Property 40 : E40
*SOLID SECTION, ELSET=P14, MATERIAL=M14
** Femap with NX Nastran Property 41 : E41
*SOLID SECTION, ELSET=P15, MATERIAL=M15
** Femap with NX Nastran Property 42 : E42
*SOLID SECTION, ELSET=P16, MATERIAL=M16
** Femap with NX Nastran Property 43 : E43
*SOLID SECTION, ELSET=P17, MATERIAL=M17
** Femap with NX Nastran Property 44 : E44
*SOLID SECTION, ELSET=P18, MATERIAL=M18
** Femap with NX Nastran Property 45 : E45
*SOLID SECTION, ELSET=P19, MATERIAL=M19
** Femap with NX Nastran Property 46 : E46
*SOLID SECTION, ELSET=P1a, MATERIAL=M1a
** Femap with NX Nastran Property 47 : E47
*SOLID SECTION, ELSET=P1b, MATERIAL=M1b
** Femap with NX Nastran Property 48 : E48
*SOLID SECTION, ELSET=P1c, MATERIAL=M1c
** Femap with NX Nastran Property 49 : E49
*SOLID SECTION, ELSET=P1d, MATERIAL=M1d
** Femap with NX Nastran Property 50 : E50
*SOLID SECTION, ELSET=P1e, MATERIAL=M1e
** Femap with NX Nastran Property 51 : E51
*SOLID SECTION, ELSET=P1f, MATERIAL=M1f
** Femap with NX Nastran Property 52 : E52
*SOLID SECTION, ELSET=P1g, MATERIAL=M1g
** Femap with NX Nastran Property 53 : E53
*SOLID SECTION, ELSET=P1h, MATERIAL=M1h
** Femap with NX Nastran Property 54 : E54
*SOLID SECTION, ELSET=P1i, MATERIAL=M1i
** Femap with NX Nastran Property 55 : E55
*SOLID SECTION, ELSET=P1j, MATERIAL=M1j
** Femap with NX Nastran Property 56 : E56
*SOLID SECTION, ELSET=P1k, MATERIAL=M1k
** Femap with NX Nastran Property 57 : E57
*SOLID SECTION, ELSET=P1l, MATERIAL=M1l
** Femap with NX Nastran Property 58 : E58
*SOLID SECTION, ELSET=P1m, MATERIAL=M1m
** Femap with NX Nastran Property 59 : E59
*SOLID SECTION, ELSET=P1n, MATERIAL=M1n
** Femap with NX Nastran Property 60 : E60
*SOLID SECTION, ELSET=P1o, MATERIAL=M1o
** Femap with NX Nastran Property 61 : E61
*SOLID SECTION, ELSET=P1p, MATERIAL=M1p
** Femap with NX Nastran Property 62 : E62
*SOLID SECTION, ELSET=P1q, MATERIAL=M1q
** Femap with NX Nastran Property 63 : E63
*SOLID SECTION, ELSET=P1r, MATERIAL=M1r
** Femap with NX Nastran Property 64 : E64
*SOLID SECTION, ELSET=P1s, MATERIAL=M1s
** Femap with NX Nastran Material 1 : ALLOY_713LC_E1
*MATERIAL, NAME=M1
*ELASTIC, TYPE=ENGINEERING CONSTANTS
0.,0.,0.,0.,0.,0.,0.,0.
0.,0.
*EXPANSION, TYPE=ORTHO
    5.6E-6,    5.6E-6,    5.6E-6,       -1.
    5.6E-6,    5.6E-6,    5.6E-6,        1.
*DENSITY
0.00074853,       -1.
0.00074853,        1.
*CONDUCTIVITY, TYPE=ORTHO
        0.,        0.,        0.,        0.
** Femap with NX Nastran Material 2 : ALLOY_713LC_E2
*MATERIAL, NAME=M2
*ELASTIC, TYPE=ENGINEERING CONSTANTS
0.,0.,0.,0.,0.,0.,0.,0.
0.,0.
*EXPANSION, TYPE=ORTHO
    5.6E-6,    5.6E-6,    5.6E-6,       -1.
    5.6E-6,    5.6E-6,    5.6E-6,        1.
*DENSITY
0.00074853,       -1.
0.00074853,        1.
*CONDUCTIVITY, TYPE=ORTHO
        0.,        0.,        0.,        0.
** Femap with NX Nastran Material 3 : ALLOY_713LC_E3
*MATERIAL, NAME=M3
*ELASTIC, TYPE=ENGINEERING CONSTANTS
0.,0.,0.,0.,0.,0.,0.,0.
0.,0.
*EXPANSION, TYPE=ORTHO
    5.6E-6,    5.6E-6,    5.6E-6,       -1.
    5.6E-6,    5.6E-6,    5.6E-6,        1.
*DENSITY
0.00074853,       -1.
0.00074853,        1.
*CONDUCTIVITY, TYPE=ORTHO
        0.,        0.,        0.,        0.
** Femap with NX Nastran Material 4 : ALLOY_713LC_E4
*MATERIAL, NAME=M4
*ELASTIC, TYPE=ENGINEERING CONSTANTS
0.,0.,0.,0.,0.,0.,0.,0.
0.,0.
*EXPANSION, TYPE=ORTHO
    5.6E-6,    5.6E-6,    5.6E-6,       -1.
    5.6E-6,    5.6E-6,    5.6E-6,        1.
*DENSITY
0.00074853,       -1.
0.00074853,        1.
*CONDUCTIVITY, TYPE=ORTHO
        0.,        0.,        0.,        0.
** Femap with NX Nastran Material 5 : ALLOY_713LC_E5
*MATERIAL, NAME=M5
*ELASTIC, TYPE=ENGINEERING CONSTANTS
0.,0.,0.,0.,0.,0.,0.,0.
0.,0.
*EXPANSION, TYPE=ORTHO
    5.6E-6,    5.6E-6,    5.6E-6,       -1.
    5.6E-6,    5.6E-6,    5.6E-6,        1.
*DENSITY
0.00074853,       -1.
0.00074853,        1.
*CONDUCTIVITY, TYPE=ORTHO
        0.,        0.,        0.,        0.
** Femap with NX Nastran Material 6 : ALLOY_713LC_E6
*MATERIAL, NAME=M6
*ELASTIC, TYPE=ENGINEERING CONSTANTS
0.,0.,0.,0.,0.,0.,0.,0.
0.,0.
*EXPANSION, TYPE=ORTHO
    5.6E-6,    5.6E-6,    5.6E-6,       -1.
    5.6E-6,    5.6E-6,    5.6E-6,        1.
*DENSITY
0.00074853,       -1.
0.00074853,        1.
*CONDUCTIVITY, TYPE=ORTHO
        0.,        0.,        0.,        0.
** Femap with NX Nastran Material 7 : ALLOY_713LC_E7
*MATERIAL, NAME=M7
*ELASTIC, TYPE=ENGINEERING CONSTANTS
0.,0.,0.,0.,0.,0.,0.,0.
0.,0.
*EXPANSION, TYPE=ORTHO
    5.6E-6,    5.6E-6,    5.6E-6,       -1.
    5.6E-6,    5.6E-6,    5.6E-6,        1.
*DENSITY
0.00074853,       -1.
0.00074853,        1.
*CONDUCTIVITY, TYPE=ORTHO
        0.,        0.,        0.,        0.
** Femap with NX Nastran Material 8 : ALLOY_713LC_E8
*MATERIAL, NAME=M8
*ELASTIC, TYPE=ENGINEERING CONSTANTS
0.,0.,0.,0.,0.,0.,0.,0.
0.,0.
*EXPANSION, TYPE=ORTHO
    5.6E-6,    5.6E-6,    5.6E-6,       -1.
    5.6E-6,    5.6E-6,    5.6E-6,        1.
*DENSITY
0.00074853,       -1.
0.00074853,        1.
*CONDUCTIVITY, TYPE=ORTHO
        0.,        0.,        0.,        0.
** Femap with NX Nastran Material 9 : ALLOY_713LC_E9
*MATERIAL, NAME=M9
*ELASTIC, TYPE=ENGINEERING CONSTANTS
0.,0.,0.,0.,0.,0.,0.,0.
0.,0.
*EXPANSION, TYPE=ORTHO
    5.6E-6,    5.6E-6,    5.6E-6,       -1.
    5.6E-6,    5.6E-6,    5.6E-6,        1.
*DENSITY
0.00074853,       -1.
0.00074853,        1.
*CONDUCTIVITY, TYPE=ORTHO
        0.,        0.,        0.,        0.
** Femap with NX Nastran Material 10 : ALLOY_713LC_E10
*MATERIAL, NAME=Ma
*ELASTIC, TYPE=ENGINEERING CONSTANTS
0.,0.,0.,0.,0.,0.,0.,0.
0.,0.
*EXPANSION, TYPE=ORTHO
    5.6E-6,    5.6E-6,    5.6E-6,       -1.
    5.6E-6,    5.6E-6,    5.6E-6,        1.
*DENSITY
0.00074853,       -1.
0.00074853,        1.
*CONDUCTIVITY, TYPE=ORTHO
        0.,        0.,        0.,        0.
** Femap with NX Nastran Material 11 : ALLOY_713LC_E11
*MATERIAL, NAME=Mb
*ELASTIC, TYPE=ENGINEERING CONSTANTS
0.,0.,0.,0.,0.,0.,0.,0.
0.,0.
*EXPANSION, TYPE=ORTHO
    5.6E-6,    5.6E-6,    5.6E-6,       -1.
    5.6E-6,    5.6E-6,    5.6E-6,        1.
*DENSITY
0.00074853,       -1.
0.00074853,        1.
*CONDUCTIVITY, TYPE=ORTHO
        0.,        0.,        0.,        0.
** Femap with NX Nastran Material 12 : ALLOY_713LC_E12
*MATERIAL, NAME=Mc
*ELASTIC, TYPE=ENGINEERING CONSTANTS
0.,0.,0.,0.,0.,0.,0.,0.
0.,0.
*EXPANSION, TYPE=ORTHO
    5.6E-6,    5.6E-6,    5.6E-6,       -1.
    5.6E-6,    5.6E-6,    5.6E-6,        1.
*DENSITY
0.00074853,       -1.
0.00074853,        1.
*CONDUCTIVITY, TYPE=ORTHO
        0.,        0.,        0.,        0.
** Femap with NX Nastran Material 13 : ALLOY_713LC_E13
*MATERIAL, NAME=Md
*ELASTIC, TYPE=ENGINEERING CONSTANTS
0.,0.,0.,0.,0.,0.,0.,0.
0.,0.
*EXPANSION, TYPE=ORTHO
    5.6E-6,    5.6E-6,    5.6E-6,       -1.
    5.6E-6,    5.6E-6,    5.6E-6,        1.
*DENSITY
0.00074853,       -1.
0.00074853,        1.
*CONDUCTIVITY, TYPE=ORTHO
        0.,        0.,        0.,        0.
** Femap with NX Nastran Material 14 : ALLOY_713LC_E14
*MATERIAL, NAME=Me
*ELASTIC, TYPE=ENGINEERING CONSTANTS
0.,0.,0.,0.,0.,0.,0.,0.
0.,0.
*EXPANSION, TYPE=ORTHO
    5.6E-6,    5.6E-6,    5.6E-6,       -1.
    5.6E-6,    5.6E-6,    5.6E-6,        1.
*DENSITY
0.00074853,       -1.
0.00074853,        1.
*CONDUCTIVITY, TYPE=ORTHO
        0.,        0.,        0.,        0.
** Femap with NX Nastran Material 15 : ALLOY_713LC_E15
*MATERIAL, NAME=Mf
*ELASTIC, TYPE=ENGINEERING CONSTANTS
0.,0.,0.,0.,0.,0.,0.,0.
0.,0.
*EXPANSION, TYPE=ORTHO
    5.6E-6,    5.6E-6,    5.6E-6,       -1.
    5.6E-6,    5.6E-6,    5.6E-6,        1.
*DENSITY
0.00074853,       -1.
0.00074853,        1.
*CONDUCTIVITY, TYPE=ORTHO
        0.,        0.,        0.,        0.
** Femap with NX Nastran Material 16 : ALLOY_713LC_E16
*MATERIAL, NAME=Mg
*ELASTIC, TYPE=ENGINEERING CONSTANTS
0.,0.,0.,0.,0.,0.,0.,0.
0.,0.
*EXPANSION, TYPE=ORTHO
    5.6E-6,    5.6E-6,    5.6E-6,       -1.
    5.6E-6,    5.6E-6,    5.6E-6,        1.
*DENSITY
0.00074853,       -1.
0.00074853,        1.
*CONDUCTIVITY, TYPE=ORTHO
        0.,        0.,        0.,        0.
** Femap with NX Nastran Material 17 : ALLOY_713LC_E17
*MATERIAL, NAME=Mh
*ELASTIC, TYPE=ENGINEERING CONSTANTS
0.,0.,0.,0.,0.,0.,0.,0.
0.,0.
*EXPANSION, TYPE=ORTHO
    5.6E-6,    5.6E-6,    5.6E-6,       -1.
    5.6E-6,    5.6E-6,    5.6E-6,        1.
*DENSITY
0.00074853,       -1.
0.00074853,        1.
*CONDUCTIVITY, TYPE=ORTHO
        0.,        0.,        0.,        0.
** Femap with NX Nastran Material 18 : ALLOY_713LC_E18
*MATERIAL, NAME=Mi
*ELASTIC, TYPE=ENGINEERING CONSTANTS
0.,0.,0.,0.,0.,0.,0.,0.
0.,0.
*EXPANSION, TYPE=ORTHO
    5.6E-6,    5.6E-6,    5.6E-6,       -1.
    5.6E-6,    5.6E-6,    5.6E-6,        1.
*DENSITY
0.00074853,       -1.
0.00074853,        1.
*CONDUCTIVITY, TYPE=ORTHO
        0.,        0.,        0.,        0.
** Femap with NX Nastran Material 19 : ALLOY_713LC_E19
*MATERIAL, NAME=Mj
*ELASTIC, TYPE=ENGINEERING CONSTANTS
0.,0.,0.,0.,0.,0.,0.,0.
0.,0.
*EXPANSION, TYPE=ORTHO
    5.6E-6,    5.6E-6,    5.6E-6,       -1.
    5.6E-6,    5.6E-6,    5.6E-6,        1.
*DENSITY
0.00074853,       -1.
0.00074853,        1.
*CONDUCTIVITY, TYPE=ORTHO
        0.,        0.,        0.,        0.
** Femap with NX Nastran Material 20 : ALLOY_713LC_E20
*MATERIAL, NAME=Mk
*ELASTIC, TYPE=ENGINEERING CONSTANTS
0.,0.,0.,0.,0.,0.,0.,0.
0.,0.
*EXPANSION, TYPE=ORTHO
    5.6E-6,    5.6E-6,    5.6E-6,       -1.
    5.6E-6,    5.6E-6,    5.6E-6,        1.
*DENSITY
0.00074853,       -1.
0.00074853,        1.
*CONDUCTIVITY, TYPE=ORTHO
        0.,        0.,        0.,        0.
** Femap with NX Nastran Material 21 : ALLOY_713LC_E21
*MATERIAL, NAME=Ml
*ELASTIC, TYPE=ENGINEERING CONSTANTS
0.,0.,0.,0.,0.,0.,0.,0.
0.,0.
*EXPANSION, TYPE=ORTHO
    5.6E-6,    5.6E-6,    5.6E-6,       -1.
    5.6E-6,    5.6E-6,    5.6E-6,        1.
*DENSITY
0.00074853,       -1.
0.00074853,        1.
*CONDUCTIVITY, TYPE=ORTHO
        0.,        0.,        0.,        0.
** Femap with NX Nastran Material 22 : ALLOY_713LC_E22
*MATERIAL, NAME=Mm
*ELASTIC, TYPE=ENGINEERING CONSTANTS
0.,0.,0.,0.,0.,0.,0.,0.
0.,0.
*EXPANSION, TYPE=ORTHO
    5.6E-6,    5.6E-6,    5.6E-6,       -1.
    5.6E-6,    5.6E-6,    5.6E-6,        1.
*DENSITY
0.00074853,       -1.
0.00074853,        1.
*CONDUCTIVITY, TYPE=ORTHO
        0.,        0.,        0.,        0.
** Femap with NX Nastran Material 23 : ALLOY_713LC_E23
*MATERIAL, NAME=Mn
*ELASTIC, TYPE=ENGINEERING CONSTANTS
0.,0.,0.,0.,0.,0.,0.,0.
0.,0.
*EXPANSION, TYPE=ORTHO
    5.6E-6,    5.6E-6,    5.6E-6,       -1.
    5.6E-6,    5.6E-6,    5.6E-6,        1.
*DENSITY
0.00074853,       -1.
0.00074853,        1.
*CONDUCTIVITY, TYPE=ORTHO
        0.,        0.,        0.,        0.
** Femap with NX Nastran Material 24 : ALLOY_713LC_E24
*MATERIAL, NAME=Mo
*ELASTIC, TYPE=ENGINEERING CONSTANTS
0.,0.,0.,0.,0.,0.,0.,0.
0.,0.
*EXPANSION, TYPE=ORTHO
    5.6E-6,    5.6E-6,    5.6E-6,       -1.
    5.6E-6,    5.6E-6,    5.6E-6,        1.
*DENSITY
0.00074853,       -1.
0.00074853,        1.
*CONDUCTIVITY, TYPE=ORTHO
        0.,        0.,        0.,        0.
** Femap with NX Nastran Material 25 : ALLOY_713LC_E25
*MATERIAL, NAME=Mp
*ELASTIC, TYPE=ENGINEERING CONSTANTS
0.,0.,0.,0.,0.,0.,0.,0.
0.,0.
*EXPANSION, TYPE=ORTHO
    5.6E-6,    5.6E-6,    5.6E-6,       -1.
    5.6E-6,    5.6E-6,    5.6E-6,        1.
*DENSITY
0.00074853,       -1.
0.00074853,        1.
*CONDUCTIVITY, TYPE=ORTHO
        0.,        0.,        0.,        0.
** Femap with NX Nastran Material 26 : ALLOY_713LC_E26
*MATERIAL, NAME=Mq
*ELASTIC, TYPE=ENGINEERING CONSTANTS
0.,0.,0.,0.,0.,0.,0.,0.
0.,0.
*EXPANSION, TYPE=ORTHO
    5.6E-6,    5.6E-6,    5.6E-6,       -1.
    5.6E-6,    5.6E-6,    5.6E-6,        1.
*DENSITY
0.00074853,       -1.
0.00074853,        1.
*CONDUCTIVITY, TYPE=ORTHO
        0.,        0.,        0.,        0.
** Femap with NX Nastran Material 27 : ALLOY_713LC_E27
*MATERIAL, NAME=Mr
*ELASTIC, TYPE=ENGINEERING CONSTANTS
0.,0.,0.,0.,0.,0.,0.,0.
0.,0.
*EXPANSION, TYPE=ORTHO
    5.6E-6,    5.6E-6,    5.6E-6,       -1.
    5.6E-6,    5.6E-6,    5.6E-6,        1.
*DENSITY
0.00074853,       -1.
0.00074853,        1.
*CONDUCTIVITY, TYPE=ORTHO
        0.,        0.,        0.,        0.
** Femap with NX Nastran Material 28 : ALLOY_713LC_E28
*MATERIAL, NAME=Ms
*ELASTIC, TYPE=ENGINEERING CONSTANTS
0.,0.,0.,0.,0.,0.,0.,0.
0.,0.
*EXPANSION, TYPE=ORTHO
    5.6E-6,    5.6E-6,    5.6E-6,       -1.
    5.6E-6,    5.6E-6,    5.6E-6,        1.
*DENSITY
0.00074853,       -1.
0.00074853,        1.
*CONDUCTIVITY, TYPE=ORTHO
        0.,        0.,        0.,        0.
** Femap with NX Nastran Material 29 : ALLOY_713LC_E29
*MATERIAL, NAME=Mt
*ELASTIC, TYPE=ENGINEERING CONSTANTS
0.,0.,0.,0.,0.,0.,0.,0.
0.,0.
*EXPANSION, TYPE=ORTHO
    5.6E-6,    5.6E-6,    5.6E-6,       -1.
    5.6E-6,    5.6E-6,    5.6E-6,        1.
*DENSITY
0.00074853,       -1.
0.00074853,        1.
*CONDUCTIVITY, TYPE=ORTHO
        0.,        0.,        0.,        0.
** Femap with NX Nastran Material 30 : ALLOY_713LC_E30
*MATERIAL, NAME=Mu
*ELASTIC, TYPE=ENGINEERING CONSTANTS
0.,0.,0.,0.,0.,0.,0.,0.
0.,0.
*EXPANSION, TYPE=ORTHO
    5.6E-6,    5.6E-6,    5.6E-6,       -1.
    5.6E-6,    5.6E-6,    5.6E-6,        1.
*DENSITY
0.00074853,       -1.
0.00074853,        1.
*CONDUCTIVITY, TYPE=ORTHO
        0.,        0.,        0.,        0.
** Femap with NX Nastran Material 31 : ALLOY_713LC_E31
*MATERIAL, NAME=Mv
*ELASTIC, TYPE=ENGINEERING CONSTANTS
0.,0.,0.,0.,0.,0.,0.,0.
0.,0.
*EXPANSION, TYPE=ORTHO
    5.6E-6,    5.6E-6,    5.6E-6,       -1.
    5.6E-6,    5.6E-6,    5.6E-6,        1.
*DENSITY
0.00074853,       -1.
0.00074853,        1.
*CONDUCTIVITY, TYPE=ORTHO
        0.,        0.,        0.,        0.
** Femap with NX Nastran Material 32 : ALLOY_713LC_E32
*MATERIAL, NAME=Mw
*ELASTIC, TYPE=ENGINEERING CONSTANTS
0.,0.,0.,0.,0.,0.,0.,0.
0.,0.
*EXPANSION, TYPE=ORTHO
    5.6E-6,    5.6E-6,    5.6E-6,       -1.
    5.6E-6,    5.6E-6,    5.6E-6,        1.
*DENSITY
0.00074853,       -1.
0.00074853,        1.
*CONDUCTIVITY, TYPE=ORTHO
        0.,        0.,        0.,        0.
** Femap with NX Nastran Material 33 : ALLOY_713LC_E33
*MATERIAL, NAME=Mx
*ELASTIC, TYPE=ENGINEERING CONSTANTS
0.,0.,0.,0.,0.,0.,0.,0.
0.,0.
*EXPANSION, TYPE=ORTHO
    5.6E-6,    5.6E-6,    5.6E-6,       -1.
    5.6E-6,    5.6E-6,    5.6E-6,        1.
*DENSITY
0.00074853,       -1.
0.00074853,        1.
*CONDUCTIVITY, TYPE=ORTHO
        0.,        0.,        0.,        0.
** Femap with NX Nastran Material 34 : ALLOY_713LC_E34
*MATERIAL, NAME=My
*ELASTIC, TYPE=ENGINEERING CONSTANTS
0.,0.,0.,0.,0.,0.,0.,0.
0.,0.
*EXPANSION, TYPE=ORTHO
    5.6E-6,    5.6E-6,    5.6E-6,       -1.
    5.6E-6,    5.6E-6,    5.6E-6,        1.
*DENSITY
0.00074853,       -1.
0.00074853,        1.
*CONDUCTIVITY, TYPE=ORTHO
        0.,        0.,        0.,        0.
** Femap with NX Nastran Material 35 : ALLOY_713LC_E35
*MATERIAL, NAME=Mz
*ELASTIC, TYPE=ENGINEERING CONSTANTS
0.,0.,0.,0.,0.,0.,0.,0.
0.,0.
*EXPANSION, TYPE=ORTHO
    5.6E-6,    5.6E-6,    5.6E-6,       -1.
    5.6E-6,    5.6E-6,    5.6E-6,        1.
*DENSITY
0.00074853,       -1.
0.00074853,        1.
*CONDUCTIVITY, TYPE=ORTHO
        0.,        0.,        0.,        0.
** Femap with NX Nastran Material 36 : ALLOY_713LC_E36
*MATERIAL, NAME=M10
*ELASTIC, TYPE=ENGINEERING CONSTANTS
0.,0.,0.,0.,0.,0.,0.,0.
0.,0.
*EXPANSION, TYPE=ORTHO
    5.6E-6,    5.6E-6,    5.6E-6,       -1.
    5.6E-6,    5.6E-6,    5.6E-6,        1.
*DENSITY
0.00074853,       -1.
0.00074853,        1.
*CONDUCTIVITY, TYPE=ORTHO
        0.,        0.,        0.,        0.
** Femap with NX Nastran Material 37 : ALLOY_713LC_E37
*MATERIAL, NAME=M11
*ELASTIC, TYPE=ENGINEERING CONSTANTS
0.,0.,0.,0.,0.,0.,0.,0.
0.,0.
*EXPANSION, TYPE=ORTHO
    5.6E-6,    5.6E-6,    5.6E-6,       -1.
    5.6E-6,    5.6E-6,    5.6E-6,        1.
*DENSITY
0.00074853,       -1.
0.00074853,        1.
*CONDUCTIVITY, TYPE=ORTHO
        0.,        0.,        0.,        0.
** Femap with NX Nastran Material 38 : ALLOY_713LC_E38
*MATERIAL, NAME=M12
*ELASTIC, TYPE=ENGINEERING CONSTANTS
0.,0.,0.,0.,0.,0.,0.,0.
0.,0.
*EXPANSION, TYPE=ORTHO
    5.6E-6,    5.6E-6,    5.6E-6,       -1.
    5.6E-6,    5.6E-6,    5.6E-6,        1.
*DENSITY
0.00074853,       -1.
0.00074853,        1.
*CONDUCTIVITY, TYPE=ORTHO
        0.,        0.,        0.,        0.
** Femap with NX Nastran Material 39 : ALLOY_713LC_E39
*MATERIAL, NAME=M13
*ELASTIC, TYPE=ENGINEERING CONSTANTS
0.,0.,0.,0.,0.,0.,0.,0.
0.,0.
*EXPANSION, TYPE=ORTHO
    5.6E-6,    5.6E-6,    5.6E-6,       -1.
    5.6E-6,    5.6E-6,    5.6E-6,        1.
*DENSITY
0.00074853,       -1.
0.00074853,        1.
*CONDUCTIVITY, TYPE=ORTHO
        0.,        0.,        0.,        0.
** Femap with NX Nastran Material 40 : ALLOY_713LC_E40
*MATERIAL, NAME=M14
*ELASTIC, TYPE=ENGINEERING CONSTANTS
0.,0.,0.,0.,0.,0.,0.,0.
0.,0.
*EXPANSION, TYPE=ORTHO
    5.6E-6,    5.6E-6,    5.6E-6,       -1.
    5.6E-6,    5.6E-6,    5.6E-6,        1.
*DENSITY
0.00074853,       -1.
0.00074853,        1.
*CONDUCTIVITY, TYPE=ORTHO
        0.,        0.,        0.,        0.
** Femap with NX Nastran Material 41 : ALLOY_713LC_E41
*MATERIAL, NAME=M15
*ELASTIC, TYPE=ENGINEERING CONSTANTS
0.,0.,0.,0.,0.,0.,0.,0.
0.,0.
*EXPANSION, TYPE=ORTHO
    5.6E-6,    5.6E-6,    5.6E-6,       -1.
    5.6E-6,    5.6E-6,    5.6E-6,        1.
*DENSITY
0.00074853,       -1.
0.00074853,        1.
*CONDUCTIVITY, TYPE=ORTHO
        0.,        0.,        0.,        0.
** Femap with NX Nastran Material 42 : ALLOY_713LC_E42
*MATERIAL, NAME=M16
*ELASTIC, TYPE=ENGINEERING CONSTANTS
0.,0.,0.,0.,0.,0.,0.,0.
0.,0.
*EXPANSION, TYPE=ORTHO
    5.6E-6,    5.6E-6,    5.6E-6,       -1.
    5.6E-6,    5.6E-6,    5.6E-6,        1.
*DENSITY
0.00074853,       -1.
0.00074853,        1.
*CONDUCTIVITY, TYPE=ORTHO
        0.,        0.,        0.,        0.
** Femap with NX Nastran Material 43 : ALLOY_713LC_E43
*MATERIAL, NAME=M17
*ELASTIC, TYPE=ENGINEERING CONSTANTS
0.,0.,0.,0.,0.,0.,0.,0.
0.,0.
*EXPANSION, TYPE=ORTHO
    5.6E-6,    5.6E-6,    5.6E-6,       -1.
    5.6E-6,    5.6E-6,    5.6E-6,        1.
*DENSITY
0.00074853,       -1.
0.00074853,        1.
*CONDUCTIVITY, TYPE=ORTHO
        0.,        0.,        0.,        0.
** Femap with NX Nastran Material 44 : ALLOY_713LC_E44
*MATERIAL, NAME=M18
*ELASTIC, TYPE=ENGINEERING CONSTANTS
0.,0.,0.,0.,0.,0.,0.,0.
0.,0.
*EXPANSION, TYPE=ORTHO
    5.6E-6,    5.6E-6,    5.6E-6,       -1.
    5.6E-6,    5.6E-6,    5.6E-6,        1.
*DENSITY
0.00074853,       -1.
0.00074853,        1.
*CONDUCTIVITY, TYPE=ORTHO
        0.,        0.,        0.,        0.
** Femap with NX Nastran Material 45 : ALLOY_713LC_E45
*MATERIAL, NAME=M19
*ELASTIC, TYPE=ENGINEERING CONSTANTS
0.,0.,0.,0.,0.,0.,0.,0.
0.,0.
*EXPANSION, TYPE=ORTHO
    5.6E-6,    5.6E-6,    5.6E-6,       -1.
    5.6E-6,    5.6E-6,    5.6E-6,        1.
*DENSITY
0.00074853,       -1.
0.00074853,        1.
*CONDUCTIVITY, TYPE=ORTHO
        0.,        0.,        0.,        0.
** Femap with NX Nastran Material 46 : ALLOY_713LC_E46
*MATERIAL, NAME=M1a
*ELASTIC, TYPE=ENGINEERING CONSTANTS
0.,0.,0.,0.,0.,0.,0.,0.
0.,0.
*EXPANSION, TYPE=ORTHO
    5.6E-6,    5.6E-6,    5.6E-6,       -1.
    5.6E-6,    5.6E-6,    5.6E-6,        1.
*DENSITY
0.00074853,       -1.
0.00074853,        1.
*CONDUCTIVITY, TYPE=ORTHO
        0.,        0.,        0.,        0.
** Femap with NX Nastran Material 47 : ALLOY_713LC_E47
*MATERIAL, NAME=M1b
*ELASTIC, TYPE=ENGINEERING CONSTANTS
0.,0.,0.,0.,0.,0.,0.,0.
0.,0.
*EXPANSION, TYPE=ORTHO
    5.6E-6,    5.6E-6,    5.6E-6,       -1.
    5.6E-6,    5.6E-6,    5.6E-6,        1.
*DENSITY
0.00074853,       -1.
0.00074853,        1.
*CONDUCTIVITY, TYPE=ORTHO
        0.,        0.,        0.,        0.
** Femap with NX Nastran Material 48 : ALLOY_713LC_E48
*MATERIAL, NAME=M1c
*ELASTIC, TYPE=ENGINEERING CONSTANTS
0.,0.,0.,0.,0.,0.,0.,0.
0.,0.
*EXPANSION, TYPE=ORTHO
    5.6E-6,    5.6E-6,    5.6E-6,       -1.
    5.6E-6,    5.6E-6,    5.6E-6,        1.
*DENSITY
0.00074853,       -1.
0.00074853,        1.
*CONDUCTIVITY, TYPE=ORTHO
        0.,        0.,        0.,        0.
** Femap with NX Nastran Material 49 : ALLOY_713LC_E49
*MATERIAL, NAME=M1d
*ELASTIC, TYPE=ENGINEERING CONSTANTS
0.,0.,0.,0.,0.,0.,0.,0.
0.,0.
*EXPANSION, TYPE=ORTHO
    5.6E-6,    5.6E-6,    5.6E-6,       -1.
    5.6E-6,    5.6E-6,    5.6E-6,        1.
*DENSITY
0.00074853,       -1.
0.00074853,        1.
*CONDUCTIVITY, TYPE=ORTHO
        0.,        0.,        0.,        0.
** Femap with NX Nastran Material 50 : ALLOY_713LC_E50
*MATERIAL, NAME=M1e
*ELASTIC, TYPE=ENGINEERING CONSTANTS
0.,0.,0.,0.,0.,0.,0.,0.
0.,0.
*EXPANSION, TYPE=ORTHO
    5.6E-6,    5.6E-6,    5.6E-6,       -1.
    5.6E-6,    5.6E-6,    5.6E-6,        1.
*DENSITY
0.00074853,       -1.
0.00074853,        1.
*CONDUCTIVITY, TYPE=ORTHO
        0.,        0.,        0.,        0.
** Femap with NX Nastran Material 51 : ALLOY_713LC_E51
*MATERIAL, NAME=M1f
*ELASTIC, TYPE=ENGINEERING CONSTANTS
0.,0.,0.,0.,0.,0.,0.,0.
0.,0.
*EXPANSION, TYPE=ORTHO
    5.6E-6,    5.6E-6,    5.6E-6,       -1.
    5.6E-6,    5.6E-6,    5.6E-6,        1.
*DENSITY
0.00074853,       -1.
0.00074853,        1.
*CONDUCTIVITY, TYPE=ORTHO
        0.,        0.,        0.,        0.
** Femap with NX Nastran Material 52 : ALLOY_713LC_E52
*MATERIAL, NAME=M1g
*ELASTIC, TYPE=ENGINEERING CONSTANTS
0.,0.,0.,0.,0.,0.,0.,0.
0.,0.
*EXPANSION, TYPE=ORTHO
    5.6E-6,    5.6E-6,    5.6E-6,       -1.
    5.6E-6,    5.6E-6,    5.6E-6,        1.
*DENSITY
0.00074853,       -1.
0.00074853,        1.
*CONDUCTIVITY, TYPE=ORTHO
        0.,        0.,        0.,        0.
** Femap with NX Nastran Material 53 : ALLOY_713LC_E53
*MATERIAL, NAME=M1h
*ELASTIC, TYPE=ENGINEERING CONSTANTS
0.,0.,0.,0.,0.,0.,0.,0.
0.,0.
*EXPANSION, TYPE=ORTHO
    5.6E-6,    5.6E-6,    5.6E-6,       -1.
    5.6E-6,    5.6E-6,    5.6E-6,        1.
*DENSITY
0.00074853,       -1.
0.00074853,        1.
*CONDUCTIVITY, TYPE=ORTHO
        0.,        0.,        0.,        0.
** Femap with NX Nastran Material 54 : ALLOY_713LC_E54
*MATERIAL, NAME=M1i
*ELASTIC, TYPE=ENGINEERING CONSTANTS
0.,0.,0.,0.,0.,0.,0.,0.
0.,0.
*EXPANSION, TYPE=ORTHO
    5.6E-6,    5.6E-6,    5.6E-6,       -1.
    5.6E-6,    5.6E-6,    5.6E-6,        1.
*DENSITY
0.00074853,       -1.
0.00074853,        1.
*CONDUCTIVITY, TYPE=ORTHO
        0.,        0.,        0.,        0.
** Femap with NX Nastran Material 55 : ALLOY_713LC_E55
*MATERIAL, NAME=M1j
*ELASTIC, TYPE=ENGINEERING CONSTANTS
0.,0.,0.,0.,0.,0.,0.,0.
0.,0.
*EXPANSION, TYPE=ORTHO
    5.6E-6,    5.6E-6,    5.6E-6,       -1.
    5.6E-6,    5.6E-6,    5.6E-6,        1.
*DENSITY
0.00074853,       -1.
0.00074853,        1.
*CONDUCTIVITY, TYPE=ORTHO
        0.,        0.,        0.,        0.
** Femap with NX Nastran Material 56 : ALLOY_713LC_E56
*MATERIAL, NAME=M1k
*ELASTIC, TYPE=ENGINEERING CONSTANTS
0.,0.,0.,0.,0.,0.,0.,0.
0.,0.
*EXPANSION, TYPE=ORTHO
    5.6E-6,    5.6E-6,    5.6E-6,       -1.
    5.6E-6,    5.6E-6,    5.6E-6,        1.
*DENSITY
0.00074853,       -1.
0.00074853,        1.
*CONDUCTIVITY, TYPE=ORTHO
        0.,        0.,        0.,        0.
** Femap with NX Nastran Material 57 : ALLOY_713LC_E57
*MATERIAL, NAME=M1l
*ELASTIC, TYPE=ENGINEERING CONSTANTS
0.,0.,0.,0.,0.,0.,0.,0.
0.,0.
*EXPANSION, TYPE=ORTHO
    5.6E-6,    5.6E-6,    5.6E-6,       -1.
    5.6E-6,    5.6E-6,    5.6E-6,        1.
*DENSITY
0.00074853,       -1.
0.00074853,        1.
*CONDUCTIVITY, TYPE=ORTHO
        0.,        0.,        0.,        0.
** Femap with NX Nastran Material 58 : ALLOY_713LC_E58
*MATERIAL, NAME=M1m
*ELASTIC, TYPE=ENGINEERING CONSTANTS
0.,0.,0.,0.,0.,0.,0.,0.
0.,0.
*EXPANSION, TYPE=ORTHO
    5.6E-6,    5.6E-6,    5.6E-6,       -1.
    5.6E-6,    5.6E-6,    5.6E-6,        1.
*DENSITY
0.00074853,       -1.
0.00074853,        1.
*CONDUCTIVITY, TYPE=ORTHO
        0.,        0.,        0.,        0.
** Femap with NX Nastran Material 59 : ALLOY_713LC_E59
*MATERIAL, NAME=M1n
*ELASTIC, TYPE=ENGINEERING CONSTANTS
0.,0.,0.,0.,0.,0.,0.,0.
0.,0.
*EXPANSION, TYPE=ORTHO
    5.6E-6,    5.6E-6,    5.6E-6,       -1.
    5.6E-6,    5.6E-6,    5.6E-6,        1.
*DENSITY
0.00074853,       -1.
0.00074853,        1.
*CONDUCTIVITY, TYPE=ORTHO
        0.,        0.,        0.,        0.
** Femap with NX Nastran Material 60 : ALLOY_713LC_E60
*MATERIAL, NAME=M1o
*ELASTIC, TYPE=ENGINEERING CONSTANTS
0.,0.,0.,0.,0.,0.,0.,0.
0.,0.
*EXPANSION, TYPE=ORTHO
    5.6E-6,    5.6E-6,    5.6E-6,       -1.
    5.6E-6,    5.6E-6,    5.6E-6,        1.
*DENSITY
0.00074853,       -1.
0.00074853,        1.
*CONDUCTIVITY, TYPE=ORTHO
        0.,        0.,        0.,        0.
** Femap with NX Nastran Material 61 : ALLOY_713LC_E61
*MATERIAL, NAME=M1p
*ELASTIC, TYPE=ENGINEERING CONSTANTS
0.,0.,0.,0.,0.,0.,0.,0.
0.,0.
*EXPANSION, TYPE=ORTHO
    5.6E-6,    5.6E-6,    5.6E-6,       -1.
    5.6E-6,    5.6E-6,    5.6E-6,        1.
*DENSITY
0.00074853,       -1.
0.00074853,        1.
*CONDUCTIVITY, TYPE=ORTHO
        0.,        0.,        0.,        0.
** Femap with NX Nastran Material 62 : ALLOY_713LC_E62
*MATERIAL, NAME=M1q
*ELASTIC, TYPE=ENGINEERING CONSTANTS
0.,0.,0.,0.,0.,0.,0.,0.
0.,0.
*EXPANSION, TYPE=ORTHO
    5.6E-6,    5.6E-6,    5.6E-6,       -1.
    5.6E-6,    5.6E-6,    5.6E-6,        1.
*DENSITY
0.00074853,       -1.
0.00074853,        1.
*CONDUCTIVITY, TYPE=ORTHO
        0.,        0.,        0.,        0.
** Femap with NX Nastran Material 63 : ALLOY_713LC_E63
*MATERIAL, NAME=M1r
*ELASTIC, TYPE=ENGINEERING CONSTANTS
0.,0.,0.,0.,0.,0.,0.,0.
0.,0.
*EXPANSION, TYPE=ORTHO
    5.6E-6,    5.6E-6,    5.6E-6,       -1.
    5.6E-6,    5.6E-6,    5.6E-6,        1.
*DENSITY
0.00074853,       -1.
0.00074853,        1.
*CONDUCTIVITY, TYPE=ORTHO
        0.,        0.,        0.,        0.
** Femap with NX Nastran Material 64 : ALLOY_713LC_E64
*MATERIAL, NAME=M1s
*ELASTIC, TYPE=ENGINEERING CONSTANTS
0.,0.,0.,0.,0.,0.,0.,0.
0.,0.
*EXPANSION, TYPE=ORTHO
    5.6E-6,    5.6E-6,    5.6E-6,       -1.
    5.6E-6,    5.6E-6,    5.6E-6,        1.
*DENSITY
0.00074853,       -1.
0.00074853,        1.
*CONDUCTIVITY, TYPE=ORTHO
        0.,        0.,        0.,        0.
** Load Step 1 -------------------------------------------------------
*STEP
*STATIC
*BOUNDARY
  363,    1
  363,    2
  363,    3
  368,    1
  368,    2
  368,    3
  373,    1
  373,    2
  373,    3
  378,    1
  378,    2
  378,    3
  383,    1
  383,    2
  383,    3
  388,    1
  388,    2
  388,    3
  393,    1
  393,    2
** ... 118 like lines cut
*DLOAD, OP=NEW
    2,P2   ,    10000.
    4,P2   ,    10000.
    6,P2   ,    10000.
    8,P2   ,    10000.
   10,P2   ,    10000.
   12,P2   ,    10000.
   14,P2   ,    10000.
   16,P2   ,    10000.
   18,P2   ,    10000.
   20,P2   ,    10000.
   22,P2   ,    10000.
   24,P2   ,    10000.
   26,P2   ,    10000.
   28,P2   ,    10000.
   30,P2   ,    10000.
   32,P2   ,    10000.
   34,P2   ,    10000.
   36,P2   ,    10000.
   38,P2   ,    10000.
   40,P2   ,    10000.
** ... 12 like lines cut
********************************************************************************
*NODE PRINT, NSET=NALL
U
*NODE FILE, OUTPUT=3D
U
*EL PRINT, ELSET=OUT_CONT
S
*EL FILE, OUTPUT=3D
S
*END STEP
********************************************************************************
