*HEADING
MODEL DYNAMICALLY GENERATED PLT_RS_REF_X1.inp
** THIS MESH WAS GENERATED ON Wednesday, April 3rd, 2013 at 03:49:26 PM
********************************************************************************
**   NEX = 40
**   Pressure = 10000.0
**   matty = Alloy_713LC
********************************************************************************
** <BEGIN> ~-~~-~~-~~-~~-~~-~~-~~-~~-~~-~~-~~-~~-~~-~~-~ NA_MESH NODES
*NODE, NSET=NA_MESH
1, 0.0, 0.0, -0.5
2, 0.0, 0.0, -0.25
3, 0.0, 0.0, 0.0
4, 0.0, 0.0, 0.25
5, 0.0, 0.0, 0.5
6, 0.0, 0.25, -0.5
8, 0.0, 0.25, 0.0
10, 0.0, 0.25, 0.5
11, 0.0, 0.5, -0.5
12, 0.0, 0.5, -0.25
13, 0.0, 0.5, 0.0
14, 0.0, 0.5, 0.25
15, 0.0, 0.5, 0.5
16, 0.0, 0.75, -0.5
18, 0.0, 0.75, 0.0
20, 0.0, 0.75, 0.5
21, 0.0, 1.0, -0.5
22, 0.0, 1.0, -0.25
23, 0.0, 1.0, 0.0
24, 0.0, 1.0, 0.25
** ... 257 like lines cut
** <END> ~-~~-~~-~~-~~-~~-~~-~~-~~-~~-~~-~~-~~-~~-~~-~ NA_MESH NODES
** <BEGIN> ~-~~-~~-~~-~~-~~-~~-~~-~~-~~-~~-~~-~~-~~-~~-~ NB_MESH NODES
*NODE, NSET=NB_MESH
**406, 0.0, 0.0, -0.5
**407, 0.0, 0.0, -0.25
**408, 0.0, 0.0, 0.0
**409, 0.0, 0.0, 0.25
**410, 0.0, 0.0, 0.5
411, -0.25, -0.125, -0.5
413, -0.25, -0.125, 0.0
415, -0.25, -0.125, 0.5
416, -0.5, -0.25, -0.5
417, -0.5, -0.25, -0.25
418, -0.5, -0.25, 0.0
419, -0.5, -0.25, 0.25
420, -0.5, -0.25, 0.5
421, -0.75, -0.375, -0.5
423, -0.75, -0.375, 0.0
425, -0.75, -0.375, 0.5
426, -1.0, -0.5, -0.5
427, -1.0, -0.5, -0.25
428, -1.0, -0.5, 0.0
429, -1.0, -0.5, 0.25
430, -1.0, -0.5, 0.5
431, -1.25, -0.625, -0.5
433, -1.25, -0.625, 0.0
435, -1.25, -0.625, 0.5
436, -1.5, -0.75, -0.5
** ... 12 like lines cut
**451, 0.0, 0.25, -0.5
**453, 0.0, 0.25, 0.0
**455, 0.0, 0.25, 0.5
457, -0.25, 0.15625, -0.25
459, -0.25, 0.15625, 0.25
461, -0.5, 0.0625, -0.5
463, -0.5, 0.0625, 0.0
465, -0.5, 0.0625, 0.5
467, -0.75, -0.03125, -0.25
469, -0.75, -0.03125, 0.25
471, -1.0, -0.125, -0.5
473, -1.0, -0.125, 0.0
475, -1.0, -0.125, 0.5
477, -1.25, -0.21875, -0.25
479, -1.25, -0.21875, 0.25
481, -1.5, -0.3125, -0.5
483, -1.5, -0.3125, 0.0
485, -1.5, -0.3125, 0.5
487, -1.75, -0.40625, -0.25
489, -1.75, -0.40625, 0.25
491, -2.0, -0.5, -0.5
493, -2.0, -0.5, 0.0
495, -2.0, -0.5, 0.5
**496, 0.0, 0.5, -0.5
**497, 0.0, 0.5, -0.25
**498, 0.0, 0.5, 0.0
**499, 0.0, 0.5, 0.25
**500, 0.0, 0.5, 0.5
501, -0.25, 0.4375, -0.5
503, -0.25, 0.4375, 0.0
505, -0.25, 0.4375, 0.5
506, -0.5, 0.375, -0.5
507, -0.5, 0.375, -0.25
508, -0.5, 0.375, 0.0
509, -0.5, 0.375, 0.25
510, -0.5, 0.375, 0.5
511, -0.75, 0.3125, -0.5
513, -0.75, 0.3125, 0.0
515, -0.75, 0.3125, 0.5
516, -1.0, 0.25, -0.5
517, -1.0, 0.25, -0.25
518, -1.0, 0.25, 0.0
519, -1.0, 0.25, 0.25
520, -1.0, 0.25, 0.5
521, -1.25, 0.1875, -0.5
523, -1.25, 0.1875, 0.0
525, -1.25, 0.1875, 0.5
526, -1.5, 0.125, -0.5
** ... 12 like lines cut
**541, 0.0, 0.75, -0.5
**543, 0.0, 0.75, 0.0
**545, 0.0, 0.75, 0.5
547, -0.25, 0.71875, -0.25
549, -0.25, 0.71875, 0.25
551, -0.5, 0.6875, -0.5
553, -0.5, 0.6875, 0.0
555, -0.5, 0.6875, 0.5
557, -0.75, 0.65625, -0.25
559, -0.75, 0.65625, 0.25
561, -1.0, 0.625, -0.5
563, -1.0, 0.625, 0.0
565, -1.0, 0.625, 0.5
567, -1.25, 0.59375, -0.25
569, -1.25, 0.59375, 0.25
571, -1.5, 0.5625, -0.5
573, -1.5, 0.5625, 0.0
575, -1.5, 0.5625, 0.5
577, -1.75, 0.53125, -0.25
579, -1.75, 0.53125, 0.25
581, -2.0, 0.5, -0.5
583, -2.0, 0.5, 0.0
585, -2.0, 0.5, 0.5
**586, 0.0, 1.0, -0.5
**587, 0.0, 1.0, -0.25
**588, 0.0, 1.0, 0.0
**589, 0.0, 1.0, 0.25
**590, 0.0, 1.0, 0.5
591, -0.25, 1.0, -0.5
593, -0.25, 1.0, 0.0
595, -0.25, 1.0, 0.5
596, -0.5, 1.0, -0.5
597, -0.5, 1.0, -0.25
598, -0.5, 1.0, 0.0
599, -0.5, 1.0, 0.25
600, -0.5, 1.0, 0.5
601, -0.75, 1.0, -0.5
603, -0.75, 1.0, 0.0
605, -0.75, 1.0, 0.5
606, -1.0, 1.0, -0.5
607, -1.0, 1.0, -0.25
608, -1.0, 1.0, 0.0
609, -1.0, 1.0, 0.25
610, -1.0, 1.0, 0.5
611, -1.25, 1.0, -0.5
613, -1.25, 1.0, 0.0
615, -1.25, 1.0, 0.5
616, -1.5, 1.0, -0.5
** ... 12 like lines cut
**631, 0.0, 1.25, -0.5
**633, 0.0, 1.25, 0.0
**635, 0.0, 1.25, 0.5
637, -0.25, 1.28125, -0.25
639, -0.25, 1.28125, 0.25
641, -0.5, 1.3125, -0.5
643, -0.5, 1.3125, 0.0
645, -0.5, 1.3125, 0.5
647, -0.75, 1.34375, -0.25
649, -0.75, 1.34375, 0.25
651, -1.0, 1.375, -0.5
653, -1.0, 1.375, 0.0
655, -1.0, 1.375, 0.5
657, -1.25, 1.40625, -0.25
659, -1.25, 1.40625, 0.25
661, -1.5, 1.4375, -0.5
663, -1.5, 1.4375, 0.0
665, -1.5, 1.4375, 0.5
667, -1.75, 1.46875, -0.25
669, -1.75, 1.46875, 0.25
671, -2.0, 1.5, -0.5
673, -2.0, 1.5, 0.0
675, -2.0, 1.5, 0.5
**676, 0.0, 1.5, -0.5
**677, 0.0, 1.5, -0.25
**678, 0.0, 1.5, 0.0
**679, 0.0, 1.5, 0.25
**680, 0.0, 1.5, 0.5
681, -0.25, 1.5625, -0.5
683, -0.25, 1.5625, 0.0
685, -0.25, 1.5625, 0.5
686, -0.5, 1.625, -0.5
687, -0.5, 1.625, -0.25
688, -0.5, 1.625, 0.0
689, -0.5, 1.625, 0.25
690, -0.5, 1.625, 0.5
691, -0.75, 1.6875, -0.5
693, -0.75, 1.6875, 0.0
695, -0.75, 1.6875, 0.5
696, -1.0, 1.75, -0.5
697, -1.0, 1.75, -0.25
698, -1.0, 1.75, 0.0
699, -1.0, 1.75, 0.25
700, -1.0, 1.75, 0.5
701, -1.25, 1.8125, -0.5
703, -1.25, 1.8125, 0.0
705, -1.25, 1.8125, 0.5
706, -1.5, 1.875, -0.5
** ... 12 like lines cut
**721, 0.0, 1.75, -0.5
**723, 0.0, 1.75, 0.0
**725, 0.0, 1.75, 0.5
727, -0.25, 1.84375, -0.25
729, -0.25, 1.84375, 0.25
731, -0.5, 1.9375, -0.5
733, -0.5, 1.9375, 0.0
735, -0.5, 1.9375, 0.5
737, -0.75, 2.03125, -0.25
739, -0.75, 2.03125, 0.25
741, -1.0, 2.125, -0.5
743, -1.0, 2.125, 0.0
745, -1.0, 2.125, 0.5
747, -1.25, 2.21875, -0.25
749, -1.25, 2.21875, 0.25
751, -1.5, 2.3125, -0.5
753, -1.5, 2.3125, 0.0
755, -1.5, 2.3125, 0.5
757, -1.75, 2.40625, -0.25
759, -1.75, 2.40625, 0.25
761, -2.0, 2.5, -0.5
763, -2.0, 2.5, 0.0
765, -2.0, 2.5, 0.5
**766, 0.0, 2.0, -0.5
**767, 0.0, 2.0, -0.25
**768, 0.0, 2.0, 0.0
**769, 0.0, 2.0, 0.25
**770, 0.0, 2.0, 0.5
771, -0.25, 2.125, -0.5
773, -0.25, 2.125, 0.0
775, -0.25, 2.125, 0.5
776, -0.5, 2.25, -0.5
777, -0.5, 2.25, -0.25
778, -0.5, 2.25, 0.0
779, -0.5, 2.25, 0.25
780, -0.5, 2.25, 0.5
781, -0.75, 2.375, -0.5
783, -0.75, 2.375, 0.0
785, -0.75, 2.375, 0.5
786, -1.0, 2.5, -0.5
787, -1.0, 2.5, -0.25
788, -1.0, 2.5, 0.0
789, -1.0, 2.5, 0.25
790, -1.0, 2.5, 0.5
791, -1.25, 2.625, -0.5
793, -1.25, 2.625, 0.0
795, -1.25, 2.625, 0.5
796, -1.5, 2.75, -0.5
** ... 12 like lines cut
** <END> ~-~~-~~-~~-~~-~~-~~-~~-~~-~~-~~-~~-~~-~~-~~-~ NB_MESH NODES
*** <BEGIN> EXTRA NODES FOR JOIN EQUATIONS ARB
***NODE, NSET=ARB_X
**811, 0.0, 1.5, 0.0
**812, 0.0, 2.0, -0.25
**813, 0.0, 0.75, -0.5
**814, 0.0, 0.0, 0.5
**815, 0.0, 2.0, -0.5
**816, 0.0, 0.25, 0.5
**817, 0.0, 1.5, -0.25
**818, 0.0, 1.0, 0.5
**819, 0.0, 1.0, 0.0
**820, 0.0, 0.5, 0.25
**821, 0.0, 0.0, -0.25
**822, 0.0, 0.0, 0.25
**823, 0.0, 1.75, 0.0
**824, 0.0, 0.25, -0.5
**825, 0.0, 0.25, 0.0
**826, 0.0, 2.0, 0.5
**827, 0.0, 0.5, -0.5
**828, 0.0, 0.0, -0.5
**829, 0.0, 0.0, 0.0
**830, 0.0, 0.5, -0.25
** ... 17 like lines cut
*** <END> EXTRA NODES FOR JOIN EQUATIONS ARB
*NSET, NSET=NALL
NA_MESH, NB_MESH
** <BEGIN> ~-~~-~~-~~-~~-~~-~~-~~-~~-~~-~~-~~-~~-~~-~~-~ ARB_A JOIN NODE SET
***NSET, NSET=ARB_A
**1, 2, 3, 4, 5, 6, 8, 10, 
**11, 12, 13, 14, 15, 16, 18, 20, 
**21, 22, 23, 24, 25, 26, 28, 30, 
**31, 32, 33, 34, 35, 36, 38, 40, 
**41, 42, 43, 44, 45
** <END> ~-~~-~~-~~-~~-~~-~~-~~-~~-~~-~~-~~-~~-~~-~~-~ ARB_A JOIN NODE SET
** <BEGIN> ~-~~-~~-~~-~~-~~-~~-~~-~~-~~-~~-~~-~~-~~-~~-~ ARB_B JOIN NODE SET
***NSET, NSET=ARB_B
**  1,   2,   3,   4,   5,   6,   8,  10, 
**406, 407, 408, 409, 410, 451, 453, 455, 

** 11,  12,  13,  14,  15,  16,  18,  20, 
**496, 497, 498, 499, 500, 541, 543, 545, 

** 21,  22,  23,  24,  25,  26,  28,  30, 
**586, 587, 588, 589, 590, 631, 633, 635, 

** 31,  32,  33,  34,  35,  36,  38,  40, 
**676, 677, 678, 679, 680, 721, 723, 725, 

** 41,  42,  43,  44,  45
**766, 767, 768, 769, 770
** <END> ~-~~-~~-~~-~~-~~-~~-~~-~~-~~-~~-~~-~~-~~-~~-~ ARB_B JOIN NODE SET
***NSET, NSET=ARB
**ARB_A, ARB_B
********************************************************************************
** <BEGIN> ~-~~-~~-~~-~~-~~-~~-~~-~~-~~-~~-~~-~~-~~-~~-~ ARB JOIN FACE COORDS
***TRANSFORM, NSET=ARB, TYPE=R
**0.0, 0.0, 1.0, 0.0, 2.0, 0.0
** <END> ~-~~-~~-~~-~~-~~-~~-~~-~~-~~-~~-~~-~~-~~-~~-~ ARB JOIN FACE COORDS
********************************************************************************
** <BEGIN> ~-~~-~~-~~-~~-~ ARB_A JOIN EQUATIONS
***EQUATION
**2
**828, 1, -1.0, 406, 1, 1.0
***EQUATION
**2
**1, 1, -1.0, 828, 1, 1.0
***EQUATION
**2
**828, 2, -1.0, 406, 2, 1.0
***EQUATION
**2
**1, 2, -1.0, 828, 2, 1.0
***EQUATION
**2
**828, 3, -1.0, 406, 3, 1.0
***EQUATION
**2
**1, 3, -1.0, 828, 3, 1.0
***EQUATION
**2
**821, 1, -1.0, 407, 1, 1.0
***EQUATION
**2
**2, 1, -1.0, 821, 1, 1.0
***EQUATION
**2
**821, 2, -1.0, 407, 2, 1.0
***EQUATION
**2
**2, 2, -1.0, 821, 2, 1.0
***EQUATION
**2
**821, 3, -1.0, 407, 3, 1.0
***EQUATION
**2
**2, 3, -1.0, 821, 3, 1.0
***EQUATION
**2
**829, 1, -1.0, 408, 1, 1.0
***EQUATION
**2
**3, 1, -1.0, 829, 1, 1.0
***EQUATION
**2
**829, 2, -1.0, 408, 2, 1.0
***EQUATION
**2
**3, 2, -1.0, 829, 2, 1.0
***EQUATION
**2
**829, 3, -1.0, 408, 3, 1.0
***EQUATION
**2
**3, 3, -1.0, 829, 3, 1.0
***EQUATION
**2
**822, 1, -1.0, 409, 1, 1.0
***EQUATION
**2
**4, 1, -1.0, 822, 1, 1.0
***EQUATION
**2
**822, 2, -1.0, 409, 2, 1.0
***EQUATION
**2
**4, 2, -1.0, 822, 2, 1.0
***EQUATION
**2
**822, 3, -1.0, 409, 3, 1.0
***EQUATION
**2
**4, 3, -1.0, 822, 3, 1.0
***EQUATION
**2
**814, 1, -1.0, 410, 1, 1.0
***EQUATION
**2
**5, 1, -1.0, 814, 1, 1.0
***EQUATION
**2
**814, 2, -1.0, 410, 2, 1.0
***EQUATION
**2
**5, 2, -1.0, 814, 2, 1.0
***EQUATION
**2
**814, 3, -1.0, 410, 3, 1.0
***EQUATION
**2
**5, 3, -1.0, 814, 3, 1.0
***EQUATION
**2
**824, 1, -1.0, 451, 1, 1.0
***EQUATION
**2
**6, 1, -1.0, 824, 1, 1.0
***EQUATION
**2
**824, 2, -1.0, 451, 2, 1.0
***EQUATION
**2
**6, 2, -1.0, 824, 2, 1.0
***EQUATION
**2
**824, 3, -1.0, 451, 3, 1.0
***EQUATION
**2
**6, 3, -1.0, 824, 3, 1.0
***EQUATION
**2
**825, 1, -1.0, 453, 1, 1.0
***EQUATION
**2
**8, 1, -1.0, 825, 1, 1.0
***EQUATION
**2
**825, 2, -1.0, 453, 2, 1.0
***EQUATION
**2
**8, 2, -1.0, 825, 2, 1.0
***EQUATION
**2
**825, 3, -1.0, 453, 3, 1.0
***EQUATION
**2
**8, 3, -1.0, 825, 3, 1.0
***EQUATION
**2
**816, 1, -1.0, 455, 1, 1.0
***EQUATION
**2
**10, 1, -1.0, 816, 1, 1.0
***EQUATION
**2
**816, 2, -1.0, 455, 2, 1.0
***EQUATION
**2
**10, 2, -1.0, 816, 2, 1.0
***EQUATION
**2
**816, 3, -1.0, 455, 3, 1.0
***EQUATION
**2
**10, 3, -1.0, 816, 3, 1.0
***EQUATION
**2
**827, 1, -1.0, 496, 1, 1.0
***EQUATION
**2
**11, 1, -1.0, 827, 1, 1.0
***EQUATION
**2
**827, 2, -1.0, 496, 2, 1.0
***EQUATION
**2
**11, 2, -1.0, 827, 2, 1.0
***EQUATION
**2
**827, 3, -1.0, 496, 3, 1.0
***EQUATION
**2
**11, 3, -1.0, 827, 3, 1.0
***EQUATION
**2
**830, 1, -1.0, 497, 1, 1.0
***EQUATION
**2
**12, 1, -1.0, 830, 1, 1.0
***EQUATION
**2
**830, 2, -1.0, 497, 2, 1.0
***EQUATION
**2
**12, 2, -1.0, 830, 2, 1.0
***EQUATION
**2
**830, 3, -1.0, 497, 3, 1.0
***EQUATION
**2
**12, 3, -1.0, 830, 3, 1.0
***EQUATION
**2
**841, 1, -1.0, 498, 1, 1.0
***EQUATION
**2
**13, 1, -1.0, 841, 1, 1.0
***EQUATION
**2
**841, 2, -1.0, 498, 2, 1.0
***EQUATION
**2
**13, 2, -1.0, 841, 2, 1.0
***EQUATION
**2
**841, 3, -1.0, 498, 3, 1.0
***EQUATION
**2
**13, 3, -1.0, 841, 3, 1.0
***EQUATION
**2
**820, 1, -1.0, 499, 1, 1.0
***EQUATION
**2
**14, 1, -1.0, 820, 1, 1.0
***EQUATION
**2
**820, 2, -1.0, 499, 2, 1.0
***EQUATION
**2
**14, 2, -1.0, 820, 2, 1.0
***EQUATION
**2
**820, 3, -1.0, 499, 3, 1.0
***EQUATION
**2
**14, 3, -1.0, 820, 3, 1.0
***EQUATION
**2
**843, 1, -1.0, 500, 1, 1.0
***EQUATION
**2
**15, 1, -1.0, 843, 1, 1.0
***EQUATION
**2
**843, 2, -1.0, 500, 2, 1.0
***EQUATION
**2
**15, 2, -1.0, 843, 2, 1.0
***EQUATION
**2
**843, 3, -1.0, 500, 3, 1.0
***EQUATION
**2
**15, 3, -1.0, 843, 3, 1.0
***EQUATION
**2
**813, 1, -1.0, 541, 1, 1.0
***EQUATION
**2
**16, 1, -1.0, 813, 1, 1.0
***EQUATION
**2
**813, 2, -1.0, 541, 2, 1.0
***EQUATION
**2
**16, 2, -1.0, 813, 2, 1.0
***EQUATION
**2
**813, 3, -1.0, 541, 3, 1.0
***EQUATION
**2
**16, 3, -1.0, 813, 3, 1.0
***EQUATION
**2
**832, 1, -1.0, 543, 1, 1.0
***EQUATION
**2
**18, 1, -1.0, 832, 1, 1.0
***EQUATION
**2
**832, 2, -1.0, 543, 2, 1.0
***EQUATION
**2
**18, 2, -1.0, 832, 2, 1.0
***EQUATION
**2
**832, 3, -1.0, 543, 3, 1.0
***EQUATION
**2
**18, 3, -1.0, 832, 3, 1.0
***EQUATION
**2
**844, 1, -1.0, 545, 1, 1.0
***EQUATION
**2
**20, 1, -1.0, 844, 1, 1.0
***EQUATION
**2
**844, 2, -1.0, 545, 2, 1.0
***EQUATION
**2
**20, 2, -1.0, 844, 2, 1.0
***EQUATION
**2
**844, 3, -1.0, 545, 3, 1.0
***EQUATION
**2
**20, 3, -1.0, 844, 3, 1.0
***EQUATION
**2
**845, 1, -1.0, 586, 1, 1.0
***EQUATION
**2
**21, 1, -1.0, 845, 1, 1.0
***EQUATION
**2
**845, 2, -1.0, 586, 2, 1.0
***EQUATION
**2
**21, 2, -1.0, 845, 2, 1.0
***EQUATION
**2
**845, 3, -1.0, 586, 3, 1.0
***EQUATION
**2
**21, 3, -1.0, 845, 3, 1.0
***EQUATION
**2
**838, 1, -1.0, 587, 1, 1.0
***EQUATION
**2
**22, 1, -1.0, 838, 1, 1.0
***EQUATION
**2
**838, 2, -1.0, 587, 2, 1.0
***EQUATION
**2
**22, 2, -1.0, 838, 2, 1.0
***EQUATION
**2
**838, 3, -1.0, 587, 3, 1.0
***EQUATION
**2
**22, 3, -1.0, 838, 3, 1.0
***EQUATION
**2
**819, 1, -1.0, 588, 1, 1.0
***EQUATION
**2
**23, 1, -1.0, 819, 1, 1.0
***EQUATION
**2
**819, 2, -1.0, 588, 2, 1.0
***EQUATION
**2
**23, 2, -1.0, 819, 2, 1.0
***EQUATION
**2
**819, 3, -1.0, 588, 3, 1.0
***EQUATION
**2
**23, 3, -1.0, 819, 3, 1.0
***EQUATION
**2
**835, 1, -1.0, 589, 1, 1.0
***EQUATION
**2
**24, 1, -1.0, 835, 1, 1.0
***EQUATION
**2
**835, 2, -1.0, 589, 2, 1.0
***EQUATION
**2
**24, 2, -1.0, 835, 2, 1.0
***EQUATION
**2
**835, 3, -1.0, 589, 3, 1.0
***EQUATION
**2
**24, 3, -1.0, 835, 3, 1.0
***EQUATION
**2
**818, 1, -1.0, 590, 1, 1.0
***EQUATION
**2
**25, 1, -1.0, 818, 1, 1.0
***EQUATION
**2
**818, 2, -1.0, 590, 2, 1.0
***EQUATION
**2
**25, 2, -1.0, 818, 2, 1.0
***EQUATION
**2
**818, 3, -1.0, 590, 3, 1.0
***EQUATION
**2
**25, 3, -1.0, 818, 3, 1.0
***EQUATION
**2
**836, 1, -1.0, 631, 1, 1.0
***EQUATION
**2
**26, 1, -1.0, 836, 1, 1.0
***EQUATION
**2
**836, 2, -1.0, 631, 2, 1.0
***EQUATION
**2
**26, 2, -1.0, 836, 2, 1.0
***EQUATION
**2
**836, 3, -1.0, 631, 3, 1.0
***EQUATION
**2
**26, 3, -1.0, 836, 3, 1.0
***EQUATION
**2
**837, 1, -1.0, 633, 1, 1.0
***EQUATION
**2
**28, 1, -1.0, 837, 1, 1.0
***EQUATION
**2
**837, 2, -1.0, 633, 2, 1.0
***EQUATION
**2
**28, 2, -1.0, 837, 2, 1.0
***EQUATION
**2
**837, 3, -1.0, 633, 3, 1.0
***EQUATION
**2
**28, 3, -1.0, 837, 3, 1.0
***EQUATION
**2
**834, 1, -1.0, 635, 1, 1.0
***EQUATION
**2
**30, 1, -1.0, 834, 1, 1.0
***EQUATION
**2
**834, 2, -1.0, 635, 2, 1.0
***EQUATION
**2
**30, 2, -1.0, 834, 2, 1.0
***EQUATION
**2
**834, 3, -1.0, 635, 3, 1.0
***EQUATION
**2
**30, 3, -1.0, 834, 3, 1.0
***EQUATION
**2
**847, 1, -1.0, 676, 1, 1.0
***EQUATION
**2
**31, 1, -1.0, 847, 1, 1.0
***EQUATION
**2
**847, 2, -1.0, 676, 2, 1.0
***EQUATION
**2
**31, 2, -1.0, 847, 2, 1.0
***EQUATION
**2
**847, 3, -1.0, 676, 3, 1.0
***EQUATION
**2
**31, 3, -1.0, 847, 3, 1.0
***EQUATION
**2
**817, 1, -1.0, 677, 1, 1.0
***EQUATION
**2
**32, 1, -1.0, 817, 1, 1.0
***EQUATION
**2
**817, 2, -1.0, 677, 2, 1.0
***EQUATION
**2
**32, 2, -1.0, 817, 2, 1.0
***EQUATION
**2
**817, 3, -1.0, 677, 3, 1.0
***EQUATION
**2
**32, 3, -1.0, 817, 3, 1.0
***EQUATION
**2
**811, 1, -1.0, 678, 1, 1.0
***EQUATION
**2
**33, 1, -1.0, 811, 1, 1.0
***EQUATION
**2
**811, 2, -1.0, 678, 2, 1.0
***EQUATION
**2
**33, 2, -1.0, 811, 2, 1.0
***EQUATION
**2
**811, 3, -1.0, 678, 3, 1.0
***EQUATION
**2
**33, 3, -1.0, 811, 3, 1.0
***EQUATION
**2
**846, 1, -1.0, 679, 1, 1.0
***EQUATION
**2
**34, 1, -1.0, 846, 1, 1.0
***EQUATION
**2
**846, 2, -1.0, 679, 2, 1.0
***EQUATION
**2
**34, 2, -1.0, 846, 2, 1.0
***EQUATION
**2
**846, 3, -1.0, 679, 3, 1.0
***EQUATION
**2
**34, 3, -1.0, 846, 3, 1.0
***EQUATION
**2
**842, 1, -1.0, 680, 1, 1.0
***EQUATION
**2
**35, 1, -1.0, 842, 1, 1.0
***EQUATION
**2
**842, 2, -1.0, 680, 2, 1.0
***EQUATION
**2
**35, 2, -1.0, 842, 2, 1.0
***EQUATION
**2
**842, 3, -1.0, 680, 3, 1.0
***EQUATION
**2
**35, 3, -1.0, 842, 3, 1.0
***EQUATION
**2
**831, 1, -1.0, 721, 1, 1.0
***EQUATION
**2
**36, 1, -1.0, 831, 1, 1.0
***EQUATION
**2
**831, 2, -1.0, 721, 2, 1.0
***EQUATION
**2
**36, 2, -1.0, 831, 2, 1.0
***EQUATION
**2
**831, 3, -1.0, 721, 3, 1.0
***EQUATION
**2
**36, 3, -1.0, 831, 3, 1.0
***EQUATION
**2
**823, 1, -1.0, 723, 1, 1.0
***EQUATION
**2
**38, 1, -1.0, 823, 1, 1.0
***EQUATION
**2
**823, 2, -1.0, 723, 2, 1.0
***EQUATION
**2
**38, 2, -1.0, 823, 2, 1.0
***EQUATION
**2
**823, 3, -1.0, 723, 3, 1.0
***EQUATION
**2
**38, 3, -1.0, 823, 3, 1.0
***EQUATION
**2
**833, 1, -1.0, 725, 1, 1.0
***EQUATION
**2
**40, 1, -1.0, 833, 1, 1.0
***EQUATION
**2
**833, 2, -1.0, 725, 2, 1.0
***EQUATION
**2
**40, 2, -1.0, 833, 2, 1.0
***EQUATION
**2
**833, 3, -1.0, 725, 3, 1.0
***EQUATION
**2
**40, 3, -1.0, 833, 3, 1.0
***EQUATION
**2
**815, 1, -1.0, 766, 1, 1.0
***EQUATION
**2
**41, 1, -1.0, 815, 1, 1.0
***EQUATION
**2
**815, 2, -1.0, 766, 2, 1.0
***EQUATION
**2
**41, 2, -1.0, 815, 2, 1.0
***EQUATION
**2
**815, 3, -1.0, 766, 3, 1.0
***EQUATION
**2
**41, 3, -1.0, 815, 3, 1.0
***EQUATION
**2
**812, 1, -1.0, 767, 1, 1.0
***EQUATION
**2
**42, 1, -1.0, 812, 1, 1.0
***EQUATION
**2
**812, 2, -1.0, 767, 2, 1.0
***EQUATION
**2
**42, 2, -1.0, 812, 2, 1.0
***EQUATION
**2
**812, 3, -1.0, 767, 3, 1.0
***EQUATION
**2
**42, 3, -1.0, 812, 3, 1.0
***EQUATION
**2
**840, 1, -1.0, 768, 1, 1.0
***EQUATION
**2
**43, 1, -1.0, 840, 1, 1.0
***EQUATION
**2
**840, 2, -1.0, 768, 2, 1.0
***EQUATION
**2
**43, 2, -1.0, 840, 2, 1.0
***EQUATION
**2
**840, 3, -1.0, 768, 3, 1.0
***EQUATION
**2
**43, 3, -1.0, 840, 3, 1.0
***EQUATION
**2
**839, 1, -1.0, 769, 1, 1.0
***EQUATION
**2
**44, 1, -1.0, 839, 1, 1.0
***EQUATION
**2
**839, 2, -1.0, 769, 2, 1.0
***EQUATION
**2
**44, 2, -1.0, 839, 2, 1.0
***EQUATION
**2
**839, 3, -1.0, 769, 3, 1.0
***EQUATION
**2
**44, 3, -1.0, 839, 3, 1.0
***EQUATION
**2
**826, 1, -1.0, 770, 1, 1.0
***EQUATION
**2
**45, 1, -1.0, 826, 1, 1.0
***EQUATION
**2
**826, 2, -1.0, 770, 2, 1.0
***EQUATION
**2
**45, 2, -1.0, 826, 2, 1.0
***EQUATION
**2
**826, 3, -1.0, 770, 3, 1.0
***EQUATION
**2
**45, 3, -1.0, 826, 3, 1.0
** <BEGIN> ~-~~-~~-~~-~~-~~-~~-~~-~~-~~-~~-~~-~~-~~-~~-~ EA_MESH ELEMENTS
*ELEMENT, TYPE=C3D20R, ELSET=E1
1, 1, 91, 101, 11, 3, 93, 103, 13, 46, 96, 56, 6, 
48, 98, 58, 8, 2, 92, 102, 12
*ELEMENT, TYPE=C3D20R, ELSET=E2
2, 3, 93, 103, 13, 5, 95, 105, 15, 48, 98, 58, 8, 
50, 100, 60, 10, 4, 94, 104, 14
*ELEMENT, TYPE=C3D20R, ELSET=E3
3, 11, 101, 111, 21, 13, 103, 113, 23, 56, 106, 66, 16, 
58, 108, 68, 18, 12, 102, 112, 22
*ELEMENT, TYPE=C3D20R, ELSET=E4
4, 13, 103, 113, 23, 15, 105, 115, 25, 58, 108, 68, 18, 
60, 110, 70, 20, 14, 104, 114, 24
*ELEMENT, TYPE=C3D20R, ELSET=E5
5, 21, 111, 121, 31, 23, 113, 123, 33, 66, 116, 76, 26, 
68, 118, 78, 28, 22, 112, 122, 32
*ELEMENT, TYPE=C3D20R, ELSET=E6
6, 23, 113, 123, 33, 25, 115, 125, 35, 68, 118, 78, 28, 
70, 120, 80, 30, 24, 114, 124, 34
*ELEMENT, TYPE=C3D20R, ELSET=E7
7, 31, 121, 131, 41, 33, 123, 133, 43, 76, 126, 86, 36, 
78, 128, 88, 38, 32, 122, 132, 42
*ELEMENT, TYPE=C3D20R, ELSET=E8
8, 33, 123, 133, 43, 35, 125, 135, 45, 78, 128, 88, 38, 
80, 130, 90, 40, 34, 124, 134, 44
*ELEMENT, TYPE=C3D20R, ELSET=E9
9, 91, 181, 191, 101, 93, 183, 193, 103, 136, 186, 146, 96, 
138, 188, 148, 98, 92, 182, 192, 102
*ELEMENT, TYPE=C3D20R, ELSET=E10
10, 93, 183, 193, 103, 95, 185, 195, 105, 138, 188, 148, 98, 
140, 190, 150, 100, 94, 184, 194, 104
*ELEMENT, TYPE=C3D20R, ELSET=E11
11, 101, 191, 201, 111, 103, 193, 203, 113, 146, 196, 156, 106, 
148, 198, 158, 108, 102, 192, 202, 112
*ELEMENT, TYPE=C3D20R, ELSET=E12
12, 103, 193, 203, 113, 105, 195, 205, 115, 148, 198, 158, 108, 
150, 200, 160, 110, 104, 194, 204, 114
*ELEMENT, TYPE=C3D20R, ELSET=E13
13, 111, 201, 211, 121, 113, 203, 213, 123, 156, 206, 166, 116, 
158, 208, 168, 118, 112, 202, 212, 122
*ELEMENT, TYPE=C3D20R, ELSET=E14
14, 113, 203, 213, 123, 115, 205, 215, 125, 158, 208, 168, 118, 
160, 210, 170, 120, 114, 204, 214, 124
*ELEMENT, TYPE=C3D20R, ELSET=E15
15, 121, 211, 221, 131, 123, 213, 223, 133, 166, 216, 176, 126, 
168, 218, 178, 128, 122, 212, 222, 132
*ELEMENT, TYPE=C3D20R, ELSET=E16
16, 123, 213, 223, 133, 125, 215, 225, 135, 168, 218, 178, 128, 
170, 220, 180, 130, 124, 214, 224, 134
*ELEMENT, TYPE=C3D20R, ELSET=E17
17, 181, 271, 281, 191, 183, 273, 283, 193, 226, 276, 236, 186, 
228, 278, 238, 188, 182, 272, 282, 192
*ELEMENT, TYPE=C3D20R, ELSET=E18
18, 183, 273, 283, 193, 185, 275, 285, 195, 228, 278, 238, 188, 
230, 280, 240, 190, 184, 274, 284, 194
*ELEMENT, TYPE=C3D20R, ELSET=E19
19, 191, 281, 291, 201, 193, 283, 293, 203, 236, 286, 246, 196, 
238, 288, 248, 198, 192, 282, 292, 202
*ELEMENT, TYPE=C3D20R, ELSET=E20
20, 193, 283, 293, 203, 195, 285, 295, 205, 238, 288, 248, 198, 
240, 290, 250, 200, 194, 284, 294, 204
** ... 36 like lines cut
** <END> ~-~~-~~-~~-~~-~~-~~-~~-~~-~~-~~-~~-~~-~~-~~-~ EA_MESH ELEMENTS
**ZZZZZZ
**
** <BEGIN> ~-~~-~~-~~-~~-~~-~~-~~-~~-~~-~~-~~-~~-~~-~~-~ EB_MESH ELEMENTS
*ELEMENT, TYPE=C3D20R, ELSET=E33
33, 1, 11, 506, 416, 3, 13, 508, 418, 6, 501, 461, 411, 
8, 503, 463, 413, 2, 12, 507, 417
*ELEMENT, TYPE=C3D20R, ELSET=E34
34, 3, 13, 508, 418, 5, 15, 510, 420, 8, 503, 463, 413, 
10, 505, 465, 415, 4, 14, 509, 419
*ELEMENT, TYPE=C3D20R, ELSET=E35
35, 416, 506, 516, 426, 418, 508, 518, 428, 461, 511, 471, 421, 
463, 513, 473, 423, 417, 507, 517, 427
*ELEMENT, TYPE=C3D20R, ELSET=E36
36, 418, 508, 518, 428, 420, 510, 520, 430, 463, 513, 473, 423, 
465, 515, 475, 425, 419, 509, 519, 429
*ELEMENT, TYPE=C3D20R, ELSET=E37
37, 426, 516, 526, 436, 428, 518, 528, 438, 471, 521, 481, 431, 
473, 523, 483, 433, 427, 517, 527, 437
*ELEMENT, TYPE=C3D20R, ELSET=E38
38, 428, 518, 528, 438, 430, 520, 530, 440, 473, 523, 483, 433, 
475, 525, 485, 435, 429, 519, 529, 439
*ELEMENT, TYPE=C3D20R, ELSET=E39
39, 436, 526, 536, 446, 438, 528, 538, 448, 481, 531, 491, 441, 
483, 533, 493, 443, 437, 527, 537, 447
*ELEMENT, TYPE=C3D20R, ELSET=E40
40, 438, 528, 538, 448, 440, 530, 540, 450, 483, 533, 493, 443, 
485, 535, 495, 445, 439, 529, 539, 449
*ELEMENT, TYPE=C3D20R, ELSET=E41
41, 11, 21, 596, 506, 13, 23, 598, 508, 16, 591, 551, 501, 
18, 593, 553, 503, 12, 22, 597, 507
*ELEMENT, TYPE=C3D20R, ELSET=E42
42, 13, 23, 598, 508, 15, 25, 600, 510, 18, 593, 553, 503, 
20, 595, 555, 505, 14, 24, 599, 509
*ELEMENT, TYPE=C3D20R, ELSET=E43
43, 506, 596, 606, 516, 508, 598, 608, 518, 551, 601, 561, 511, 
553, 603, 563, 513, 507, 597, 607, 517
*ELEMENT, TYPE=C3D20R, ELSET=E44
44, 508, 598, 608, 518, 510, 600, 610, 520, 553, 603, 563, 513, 
555, 605, 565, 515, 509, 599, 609, 519
*ELEMENT, TYPE=C3D20R, ELSET=E45
45, 516, 606, 616, 526, 518, 608, 618, 528, 561, 611, 571, 521, 
563, 613, 573, 523, 517, 607, 617, 527
*ELEMENT, TYPE=C3D20R, ELSET=E46
46, 518, 608, 618, 528, 520, 610, 620, 530, 563, 613, 573, 523, 
565, 615, 575, 525, 519, 609, 619, 529
*ELEMENT, TYPE=C3D20R, ELSET=E47
47, 526, 616, 626, 536, 528, 618, 628, 538, 571, 621, 581, 531, 
573, 623, 583, 533, 527, 617, 627, 537
*ELEMENT, TYPE=C3D20R, ELSET=E48
48, 528, 618, 628, 538, 530, 620, 630, 540, 573, 623, 583, 533, 
575, 625, 585, 535, 529, 619, 629, 539
*ELEMENT, TYPE=C3D20R, ELSET=E49
49, 21, 31, 686, 596, 23, 33, 688, 598, 26, 681, 641, 591, 
28, 683, 643, 593, 22, 32, 687, 597
*ELEMENT, TYPE=C3D20R, ELSET=E50
50, 23, 33, 688, 598, 25, 35, 690, 600, 28, 683, 643, 593, 
30, 685, 645, 595, 24, 34, 689, 599
*ELEMENT, TYPE=C3D20R, ELSET=E51
51, 596, 686, 696, 606, 598, 688, 698, 608, 641, 691, 651, 601, 
643, 693, 653, 603, 597, 687, 697, 607
*ELEMENT, TYPE=C3D20R, ELSET=E52
52, 598, 688, 698, 608, 600, 690, 700, 610, 643, 693, 653, 603, 
645, 695, 655, 605, 599, 689, 699, 609
** ... 36 like lines cut
** <END> ~-~~-~~-~~-~~-~~-~~-~~-~~-~~-~~-~~-~~-~~-~~-~ EB_MESH ELEMENTS
*ELSET, ELSET=EALL
1, 2, 3, 4, 5, 6, 7, 8, 9, 10, 11, 12, 13
14, 15, 16, 17, 18, 19, 20, 21, 22, 23, 24, 25, 26
27, 28, 29, 30, 31, 32, 33, 34, 35, 36, 37, 38, 39
40, 41, 42, 43, 44, 45, 46, 47, 48, 49, 50, 51, 52
53, 54, 55, 56, 57, 58, 59, 60, 61, 62, 63, 64
********************************************************************************
*MATERIAL, NAME=Alloy_713LC_E1
**  ELSET VOL FRAC = 1.0
*DENSITY
0.000748533, -1.0
0.000748533, 1.0
*ELASTIC, TYPE=ENGINEERING CONSTANTS
28873091.7796, 28873091.7796, 28873091.7796, 0.3, 0.3, 0.3, 11105035.2998, 11105035.2998
11105035.2998, -1.0
28865399.0534, 28865399.0534, 28865399.0534, 0.3, 0.3, 0.3, 11102076.559, 11102076.559
11102076.559, 1.0
*EXPANSION, TYPE=ORTHO, ZERO=0.0
5.6e-06, 5.6e-06, 5.6e-06, -1.0
5.6e-06, 5.6e-06, 5.6e-06, 1.0
*SOLID SECTION, ELSET=E1, MATERIAL=Alloy_713LC_E1
*MATERIAL, NAME=Alloy_713LC_E2
**  ELSET VOL FRAC = 1.0
*DENSITY
0.000748533, -1.0
0.000748533, 1.0
*ELASTIC, TYPE=ENGINEERING CONSTANTS
28873091.7796, 28873091.7796, 28873091.7796, 0.3, 0.3, 0.3, 11105035.2998, 11105035.2998
11105035.2998, -1.0
28865399.0534, 28865399.0534, 28865399.0534, 0.3, 0.3, 0.3, 11102076.559, 11102076.559
11102076.559, 1.0
*EXPANSION, TYPE=ORTHO, ZERO=0.0
5.6e-06, 5.6e-06, 5.6e-06, -1.0
5.6e-06, 5.6e-06, 5.6e-06, 1.0
*SOLID SECTION, ELSET=E2, MATERIAL=Alloy_713LC_E2
*MATERIAL, NAME=Alloy_713LC_E3
**  ELSET VOL FRAC = 1.0
*DENSITY
0.000748533, -1.0
0.000748533, 1.0
*ELASTIC, TYPE=ENGINEERING CONSTANTS
28873091.7796, 28873091.7796, 28873091.7796, 0.3, 0.3, 0.3, 11105035.2998, 11105035.2998
11105035.2998, -1.0
28865399.0534, 28865399.0534, 28865399.0534, 0.3, 0.3, 0.3, 11102076.559, 11102076.559
11102076.559, 1.0
*EXPANSION, TYPE=ORTHO, ZERO=0.0
5.6e-06, 5.6e-06, 5.6e-06, -1.0
5.6e-06, 5.6e-06, 5.6e-06, 1.0
*SOLID SECTION, ELSET=E3, MATERIAL=Alloy_713LC_E3
*MATERIAL, NAME=Alloy_713LC_E4
**  ELSET VOL FRAC = 1.0
*DENSITY
0.000748533, -1.0
0.000748533, 1.0
*ELASTIC, TYPE=ENGINEERING CONSTANTS
28873091.7796, 28873091.7796, 28873091.7796, 0.3, 0.3, 0.3, 11105035.2998, 11105035.2998
11105035.2998, -1.0
28865399.0534, 28865399.0534, 28865399.0534, 0.3, 0.3, 0.3, 11102076.559, 11102076.559
11102076.559, 1.0
*EXPANSION, TYPE=ORTHO, ZERO=0.0
5.6e-06, 5.6e-06, 5.6e-06, -1.0
5.6e-06, 5.6e-06, 5.6e-06, 1.0
*SOLID SECTION, ELSET=E4, MATERIAL=Alloy_713LC_E4
*MATERIAL, NAME=Alloy_713LC_E5
**  ELSET VOL FRAC = 1.0
*DENSITY
0.000748533, -1.0
0.000748533, 1.0
*ELASTIC, TYPE=ENGINEERING CONSTANTS
28873091.7796, 28873091.7796, 28873091.7796, 0.3, 0.3, 0.3, 11105035.2998, 11105035.2998
11105035.2998, -1.0
28865399.0534, 28865399.0534, 28865399.0534, 0.3, 0.3, 0.3, 11102076.559, 11102076.559
11102076.559, 1.0
*EXPANSION, TYPE=ORTHO, ZERO=0.0
5.6e-06, 5.6e-06, 5.6e-06, -1.0
5.6e-06, 5.6e-06, 5.6e-06, 1.0
*SOLID SECTION, ELSET=E5, MATERIAL=Alloy_713LC_E5
*MATERIAL, NAME=Alloy_713LC_E6
**  ELSET VOL FRAC = 1.0
*DENSITY
0.000748533, -1.0
0.000748533, 1.0
*ELASTIC, TYPE=ENGINEERING CONSTANTS
28873091.7796, 28873091.7796, 28873091.7796, 0.3, 0.3, 0.3, 11105035.2998, 11105035.2998
11105035.2998, -1.0
28865399.0534, 28865399.0534, 28865399.0534, 0.3, 0.3, 0.3, 11102076.559, 11102076.559
11102076.559, 1.0
*EXPANSION, TYPE=ORTHO, ZERO=0.0
5.6e-06, 5.6e-06, 5.6e-06, -1.0
5.6e-06, 5.6e-06, 5.6e-06, 1.0
*SOLID SECTION, ELSET=E6, MATERIAL=Alloy_713LC_E6
*MATERIAL, NAME=Alloy_713LC_E7
**  ELSET VOL FRAC = 1.0
*DENSITY
0.000748533, -1.0
0.000748533, 1.0
*ELASTIC, TYPE=ENGINEERING CONSTANTS
28873091.7796, 28873091.7796, 28873091.7796, 0.3, 0.3, 0.3, 11105035.2998, 11105035.2998
11105035.2998, -1.0
28865399.0534, 28865399.0534, 28865399.0534, 0.3, 0.3, 0.3, 11102076.559, 11102076.559
11102076.559, 1.0
*EXPANSION, TYPE=ORTHO, ZERO=0.0
5.6e-06, 5.6e-06, 5.6e-06, -1.0
5.6e-06, 5.6e-06, 5.6e-06, 1.0
*SOLID SECTION, ELSET=E7, MATERIAL=Alloy_713LC_E7
*MATERIAL, NAME=Alloy_713LC_E8
**  ELSET VOL FRAC = 1.0
*DENSITY
0.000748533, -1.0
0.000748533, 1.0
*ELASTIC, TYPE=ENGINEERING CONSTANTS
28873091.7796, 28873091.7796, 28873091.7796, 0.3, 0.3, 0.3, 11105035.2998, 11105035.2998
11105035.2998, -1.0
28865399.0534, 28865399.0534, 28865399.0534, 0.3, 0.3, 0.3, 11102076.559, 11102076.559
11102076.559, 1.0
*EXPANSION, TYPE=ORTHO, ZERO=0.0
5.6e-06, 5.6e-06, 5.6e-06, -1.0
5.6e-06, 5.6e-06, 5.6e-06, 1.0
*SOLID SECTION, ELSET=E8, MATERIAL=Alloy_713LC_E8
*MATERIAL, NAME=Alloy_713LC_E9
**  ELSET VOL FRAC = 1.0
*DENSITY
0.000748533, -1.0
0.000748533, 1.0
*ELASTIC, TYPE=ENGINEERING CONSTANTS
28873091.7796, 28873091.7796, 28873091.7796, 0.3, 0.3, 0.3, 11105035.2998, 11105035.2998
11105035.2998, -1.0
28865399.0534, 28865399.0534, 28865399.0534, 0.3, 0.3, 0.3, 11102076.559, 11102076.559
11102076.559, 1.0
*EXPANSION, TYPE=ORTHO, ZERO=0.0
5.6e-06, 5.6e-06, 5.6e-06, -1.0
5.6e-06, 5.6e-06, 5.6e-06, 1.0
*SOLID SECTION, ELSET=E9, MATERIAL=Alloy_713LC_E9
*MATERIAL, NAME=Alloy_713LC_E10
**  ELSET VOL FRAC = 1.0
*DENSITY
0.000748533, -1.0
0.000748533, 1.0
*ELASTIC, TYPE=ENGINEERING CONSTANTS
28873091.7796, 28873091.7796, 28873091.7796, 0.3, 0.3, 0.3, 11105035.2998, 11105035.2998
11105035.2998, -1.0
28865399.0534, 28865399.0534, 28865399.0534, 0.3, 0.3, 0.3, 11102076.559, 11102076.559
11102076.559, 1.0
*EXPANSION, TYPE=ORTHO, ZERO=0.0
5.6e-06, 5.6e-06, 5.6e-06, -1.0
5.6e-06, 5.6e-06, 5.6e-06, 1.0
*SOLID SECTION, ELSET=E10, MATERIAL=Alloy_713LC_E10
*MATERIAL, NAME=Alloy_713LC_E11
**  ELSET VOL FRAC = 1.0
*DENSITY
0.000748533, -1.0
0.000748533, 1.0
*ELASTIC, TYPE=ENGINEERING CONSTANTS
28873091.7796, 28873091.7796, 28873091.7796, 0.3, 0.3, 0.3, 11105035.2998, 11105035.2998
11105035.2998, -1.0
28865399.0534, 28865399.0534, 28865399.0534, 0.3, 0.3, 0.3, 11102076.559, 11102076.559
11102076.559, 1.0
*EXPANSION, TYPE=ORTHO, ZERO=0.0
5.6e-06, 5.6e-06, 5.6e-06, -1.0
5.6e-06, 5.6e-06, 5.6e-06, 1.0
*SOLID SECTION, ELSET=E11, MATERIAL=Alloy_713LC_E11
*MATERIAL, NAME=Alloy_713LC_E12
**  ELSET VOL FRAC = 1.0
*DENSITY
0.000748533, -1.0
0.000748533, 1.0
*ELASTIC, TYPE=ENGINEERING CONSTANTS
28873091.7796, 28873091.7796, 28873091.7796, 0.3, 0.3, 0.3, 11105035.2998, 11105035.2998
11105035.2998, -1.0
28865399.0534, 28865399.0534, 28865399.0534, 0.3, 0.3, 0.3, 11102076.559, 11102076.559
11102076.559, 1.0
*EXPANSION, TYPE=ORTHO, ZERO=0.0
5.6e-06, 5.6e-06, 5.6e-06, -1.0
5.6e-06, 5.6e-06, 5.6e-06, 1.0
*SOLID SECTION, ELSET=E12, MATERIAL=Alloy_713LC_E12
*MATERIAL, NAME=Alloy_713LC_E13
**  ELSET VOL FRAC = 1.0
*DENSITY
0.000748533, -1.0
0.000748533, 1.0
*ELASTIC, TYPE=ENGINEERING CONSTANTS
28873091.7796, 28873091.7796, 28873091.7796, 0.3, 0.3, 0.3, 11105035.2998, 11105035.2998
11105035.2998, -1.0
28865399.0534, 28865399.0534, 28865399.0534, 0.3, 0.3, 0.3, 11102076.559, 11102076.559
11102076.559, 1.0
*EXPANSION, TYPE=ORTHO, ZERO=0.0
5.6e-06, 5.6e-06, 5.6e-06, -1.0
5.6e-06, 5.6e-06, 5.6e-06, 1.0
*SOLID SECTION, ELSET=E13, MATERIAL=Alloy_713LC_E13
*MATERIAL, NAME=Alloy_713LC_E14
**  ELSET VOL FRAC = 1.0
*DENSITY
0.000748533, -1.0
0.000748533, 1.0
*ELASTIC, TYPE=ENGINEERING CONSTANTS
28873091.7796, 28873091.7796, 28873091.7796, 0.3, 0.3, 0.3, 11105035.2998, 11105035.2998
11105035.2998, -1.0
28865399.0534, 28865399.0534, 28865399.0534, 0.3, 0.3, 0.3, 11102076.559, 11102076.559
11102076.559, 1.0
*EXPANSION, TYPE=ORTHO, ZERO=0.0
5.6e-06, 5.6e-06, 5.6e-06, -1.0
5.6e-06, 5.6e-06, 5.6e-06, 1.0
*SOLID SECTION, ELSET=E14, MATERIAL=Alloy_713LC_E14
*MATERIAL, NAME=Alloy_713LC_E15
**  ELSET VOL FRAC = 1.0
*DENSITY
0.000748533, -1.0
0.000748533, 1.0
*ELASTIC, TYPE=ENGINEERING CONSTANTS
28873091.7796, 28873091.7796, 28873091.7796, 0.3, 0.3, 0.3, 11105035.2998, 11105035.2998
11105035.2998, -1.0
28865399.0534, 28865399.0534, 28865399.0534, 0.3, 0.3, 0.3, 11102076.559, 11102076.559
11102076.559, 1.0
*EXPANSION, TYPE=ORTHO, ZERO=0.0
5.6e-06, 5.6e-06, 5.6e-06, -1.0
5.6e-06, 5.6e-06, 5.6e-06, 1.0
*SOLID SECTION, ELSET=E15, MATERIAL=Alloy_713LC_E15
*MATERIAL, NAME=Alloy_713LC_E16
**  ELSET VOL FRAC = 1.0
*DENSITY
0.000748533, -1.0
0.000748533, 1.0
*ELASTIC, TYPE=ENGINEERING CONSTANTS
28873091.7796, 28873091.7796, 28873091.7796, 0.3, 0.3, 0.3, 11105035.2998, 11105035.2998
11105035.2998, -1.0
28865399.0534, 28865399.0534, 28865399.0534, 0.3, 0.3, 0.3, 11102076.559, 11102076.559
11102076.559, 1.0
*EXPANSION, TYPE=ORTHO, ZERO=0.0
5.6e-06, 5.6e-06, 5.6e-06, -1.0
5.6e-06, 5.6e-06, 5.6e-06, 1.0
*SOLID SECTION, ELSET=E16, MATERIAL=Alloy_713LC_E16
*MATERIAL, NAME=Alloy_713LC_E17
**  ELSET VOL FRAC = 1.0
*DENSITY
0.000748533, -1.0
0.000748533, 1.0
*ELASTIC, TYPE=ENGINEERING CONSTANTS
28873091.7796, 28873091.7796, 28873091.7796, 0.3, 0.3, 0.3, 11105035.2998, 11105035.2998
11105035.2998, -1.0
28865399.0534, 28865399.0534, 28865399.0534, 0.3, 0.3, 0.3, 11102076.559, 11102076.559
11102076.559, 1.0
*EXPANSION, TYPE=ORTHO, ZERO=0.0
5.6e-06, 5.6e-06, 5.6e-06, -1.0
5.6e-06, 5.6e-06, 5.6e-06, 1.0
*SOLID SECTION, ELSET=E17, MATERIAL=Alloy_713LC_E17
*MATERIAL, NAME=Alloy_713LC_E18
**  ELSET VOL FRAC = 1.0
*DENSITY
0.000748533, -1.0
0.000748533, 1.0
*ELASTIC, TYPE=ENGINEERING CONSTANTS
28873091.7796, 28873091.7796, 28873091.7796, 0.3, 0.3, 0.3, 11105035.2998, 11105035.2998
11105035.2998, -1.0
28865399.0534, 28865399.0534, 28865399.0534, 0.3, 0.3, 0.3, 11102076.559, 11102076.559
11102076.559, 1.0
*EXPANSION, TYPE=ORTHO, ZERO=0.0
5.6e-06, 5.6e-06, 5.6e-06, -1.0
5.6e-06, 5.6e-06, 5.6e-06, 1.0
*SOLID SECTION, ELSET=E18, MATERIAL=Alloy_713LC_E18
*MATERIAL, NAME=Alloy_713LC_E19
**  ELSET VOL FRAC = 1.0
*DENSITY
0.000748533, -1.0
0.000748533, 1.0
*ELASTIC, TYPE=ENGINEERING CONSTANTS
28873091.7796, 28873091.7796, 28873091.7796, 0.3, 0.3, 0.3, 11105035.2998, 11105035.2998
11105035.2998, -1.0
28865399.0534, 28865399.0534, 28865399.0534, 0.3, 0.3, 0.3, 11102076.559, 11102076.559
11102076.559, 1.0
*EXPANSION, TYPE=ORTHO, ZERO=0.0
5.6e-06, 5.6e-06, 5.6e-06, -1.0
5.6e-06, 5.6e-06, 5.6e-06, 1.0
*SOLID SECTION, ELSET=E19, MATERIAL=Alloy_713LC_E19
*MATERIAL, NAME=Alloy_713LC_E20
**  ELSET VOL FRAC = 1.0
*DENSITY
0.000748533, -1.0
0.000748533, 1.0
*ELASTIC, TYPE=ENGINEERING CONSTANTS
28873091.7796, 28873091.7796, 28873091.7796, 0.3, 0.3, 0.3, 11105035.2998, 11105035.2998
11105035.2998, -1.0
28865399.0534, 28865399.0534, 28865399.0534, 0.3, 0.3, 0.3, 11102076.559, 11102076.559
11102076.559, 1.0
*EXPANSION, TYPE=ORTHO, ZERO=0.0
5.6e-06, 5.6e-06, 5.6e-06, -1.0
5.6e-06, 5.6e-06, 5.6e-06, 1.0
*SOLID SECTION, ELSET=E20, MATERIAL=Alloy_713LC_E20
*MATERIAL, NAME=Alloy_713LC_E21
**  ELSET VOL FRAC = 1.0
*DENSITY
0.000748533, -1.0
0.000748533, 1.0
*ELASTIC, TYPE=ENGINEERING CONSTANTS
28873091.7796, 28873091.7796, 28873091.7796, 0.3, 0.3, 0.3, 11105035.2998, 11105035.2998
11105035.2998, -1.0
28865399.0534, 28865399.0534, 28865399.0534, 0.3, 0.3, 0.3, 11102076.559, 11102076.559
11102076.559, 1.0
*EXPANSION, TYPE=ORTHO, ZERO=0.0
5.6e-06, 5.6e-06, 5.6e-06, -1.0
5.6e-06, 5.6e-06, 5.6e-06, 1.0
*SOLID SECTION, ELSET=E21, MATERIAL=Alloy_713LC_E21
*MATERIAL, NAME=Alloy_713LC_E22
**  ELSET VOL FRAC = 1.0
*DENSITY
0.000748533, -1.0
0.000748533, 1.0
*ELASTIC, TYPE=ENGINEERING CONSTANTS
28873091.7796, 28873091.7796, 28873091.7796, 0.3, 0.3, 0.3, 11105035.2998, 11105035.2998
11105035.2998, -1.0
28865399.0534, 28865399.0534, 28865399.0534, 0.3, 0.3, 0.3, 11102076.559, 11102076.559
11102076.559, 1.0
*EXPANSION, TYPE=ORTHO, ZERO=0.0
5.6e-06, 5.6e-06, 5.6e-06, -1.0
5.6e-06, 5.6e-06, 5.6e-06, 1.0
*SOLID SECTION, ELSET=E22, MATERIAL=Alloy_713LC_E22
*MATERIAL, NAME=Alloy_713LC_E23
**  ELSET VOL FRAC = 1.0
*DENSITY
0.000748533, -1.0
0.000748533, 1.0
*ELASTIC, TYPE=ENGINEERING CONSTANTS
28873091.7796, 28873091.7796, 28873091.7796, 0.3, 0.3, 0.3, 11105035.2998, 11105035.2998
11105035.2998, -1.0
28865399.0534, 28865399.0534, 28865399.0534, 0.3, 0.3, 0.3, 11102076.559, 11102076.559
11102076.559, 1.0
*EXPANSION, TYPE=ORTHO, ZERO=0.0
5.6e-06, 5.6e-06, 5.6e-06, -1.0
5.6e-06, 5.6e-06, 5.6e-06, 1.0
*SOLID SECTION, ELSET=E23, MATERIAL=Alloy_713LC_E23
*MATERIAL, NAME=Alloy_713LC_E24
**  ELSET VOL FRAC = 1.0
*DENSITY
0.000748533, -1.0
0.000748533, 1.0
*ELASTIC, TYPE=ENGINEERING CONSTANTS
28873091.7796, 28873091.7796, 28873091.7796, 0.3, 0.3, 0.3, 11105035.2998, 11105035.2998
11105035.2998, -1.0
28865399.0534, 28865399.0534, 28865399.0534, 0.3, 0.3, 0.3, 11102076.559, 11102076.559
11102076.559, 1.0
*EXPANSION, TYPE=ORTHO, ZERO=0.0
5.6e-06, 5.6e-06, 5.6e-06, -1.0
5.6e-06, 5.6e-06, 5.6e-06, 1.0
*SOLID SECTION, ELSET=E24, MATERIAL=Alloy_713LC_E24
*MATERIAL, NAME=Alloy_713LC_E25
**  ELSET VOL FRAC = 1.0
*DENSITY
0.000748533, -1.0
0.000748533, 1.0
*ELASTIC, TYPE=ENGINEERING CONSTANTS
28873091.7796, 28873091.7796, 28873091.7796, 0.3, 0.3, 0.3, 11105035.2998, 11105035.2998
11105035.2998, -1.0
28865399.0534, 28865399.0534, 28865399.0534, 0.3, 0.3, 0.3, 11102076.559, 11102076.559
11102076.559, 1.0
*EXPANSION, TYPE=ORTHO, ZERO=0.0
5.6e-06, 5.6e-06, 5.6e-06, -1.0
5.6e-06, 5.6e-06, 5.6e-06, 1.0
*SOLID SECTION, ELSET=E25, MATERIAL=Alloy_713LC_E25
*MATERIAL, NAME=Alloy_713LC_E26
**  ELSET VOL FRAC = 1.0
*DENSITY
0.000748533, -1.0
0.000748533, 1.0
*ELASTIC, TYPE=ENGINEERING CONSTANTS
28873091.7796, 28873091.7796, 28873091.7796, 0.3, 0.3, 0.3, 11105035.2998, 11105035.2998
11105035.2998, -1.0
28865399.0534, 28865399.0534, 28865399.0534, 0.3, 0.3, 0.3, 11102076.559, 11102076.559
11102076.559, 1.0
*EXPANSION, TYPE=ORTHO, ZERO=0.0
5.6e-06, 5.6e-06, 5.6e-06, -1.0
5.6e-06, 5.6e-06, 5.6e-06, 1.0
*SOLID SECTION, ELSET=E26, MATERIAL=Alloy_713LC_E26
*MATERIAL, NAME=Alloy_713LC_E27
**  ELSET VOL FRAC = 1.0
*DENSITY
0.000748533, -1.0
0.000748533, 1.0
*ELASTIC, TYPE=ENGINEERING CONSTANTS
28873091.7796, 28873091.7796, 28873091.7796, 0.3, 0.3, 0.3, 11105035.2998, 11105035.2998
11105035.2998, -1.0
28865399.0534, 28865399.0534, 28865399.0534, 0.3, 0.3, 0.3, 11102076.559, 11102076.559
11102076.559, 1.0
*EXPANSION, TYPE=ORTHO, ZERO=0.0
5.6e-06, 5.6e-06, 5.6e-06, -1.0
5.6e-06, 5.6e-06, 5.6e-06, 1.0
*SOLID SECTION, ELSET=E27, MATERIAL=Alloy_713LC_E27
*MATERIAL, NAME=Alloy_713LC_E28
**  ELSET VOL FRAC = 1.0
*DENSITY
0.000748533, -1.0
0.000748533, 1.0
*ELASTIC, TYPE=ENGINEERING CONSTANTS
28873091.7796, 28873091.7796, 28873091.7796, 0.3, 0.3, 0.3, 11105035.2998, 11105035.2998
11105035.2998, -1.0
28865399.0534, 28865399.0534, 28865399.0534, 0.3, 0.3, 0.3, 11102076.559, 11102076.559
11102076.559, 1.0
*EXPANSION, TYPE=ORTHO, ZERO=0.0
5.6e-06, 5.6e-06, 5.6e-06, -1.0
5.6e-06, 5.6e-06, 5.6e-06, 1.0
*SOLID SECTION, ELSET=E28, MATERIAL=Alloy_713LC_E28
*MATERIAL, NAME=Alloy_713LC_E29
**  ELSET VOL FRAC = 1.0
*DENSITY
0.000748533, -1.0
0.000748533, 1.0
*ELASTIC, TYPE=ENGINEERING CONSTANTS
28873091.7796, 28873091.7796, 28873091.7796, 0.3, 0.3, 0.3, 11105035.2998, 11105035.2998
11105035.2998, -1.0
28865399.0534, 28865399.0534, 28865399.0534, 0.3, 0.3, 0.3, 11102076.559, 11102076.559
11102076.559, 1.0
*EXPANSION, TYPE=ORTHO, ZERO=0.0
5.6e-06, 5.6e-06, 5.6e-06, -1.0
5.6e-06, 5.6e-06, 5.6e-06, 1.0
*SOLID SECTION, ELSET=E29, MATERIAL=Alloy_713LC_E29
*MATERIAL, NAME=Alloy_713LC_E30
**  ELSET VOL FRAC = 1.0
*DENSITY
0.000748533, -1.0
0.000748533, 1.0
*ELASTIC, TYPE=ENGINEERING CONSTANTS
28873091.7796, 28873091.7796, 28873091.7796, 0.3, 0.3, 0.3, 11105035.2998, 11105035.2998
11105035.2998, -1.0
28865399.0534, 28865399.0534, 28865399.0534, 0.3, 0.3, 0.3, 11102076.559, 11102076.559
11102076.559, 1.0
*EXPANSION, TYPE=ORTHO, ZERO=0.0
5.6e-06, 5.6e-06, 5.6e-06, -1.0
5.6e-06, 5.6e-06, 5.6e-06, 1.0
*SOLID SECTION, ELSET=E30, MATERIAL=Alloy_713LC_E30
*MATERIAL, NAME=Alloy_713LC_E31
**  ELSET VOL FRAC = 1.0
*DENSITY
0.000748533, -1.0
0.000748533, 1.0
*ELASTIC, TYPE=ENGINEERING CONSTANTS
28873091.7796, 28873091.7796, 28873091.7796, 0.3, 0.3, 0.3, 11105035.2998, 11105035.2998
11105035.2998, -1.0
28865399.0534, 28865399.0534, 28865399.0534, 0.3, 0.3, 0.3, 11102076.559, 11102076.559
11102076.559, 1.0
*EXPANSION, TYPE=ORTHO, ZERO=0.0
5.6e-06, 5.6e-06, 5.6e-06, -1.0
5.6e-06, 5.6e-06, 5.6e-06, 1.0
*SOLID SECTION, ELSET=E31, MATERIAL=Alloy_713LC_E31
*MATERIAL, NAME=Alloy_713LC_E32
**  ELSET VOL FRAC = 1.0
*DENSITY
0.000748533, -1.0
0.000748533, 1.0
*ELASTIC, TYPE=ENGINEERING CONSTANTS
28873091.7796, 28873091.7796, 28873091.7796, 0.3, 0.3, 0.3, 11105035.2998, 11105035.2998
11105035.2998, -1.0
28865399.0534, 28865399.0534, 28865399.0534, 0.3, 0.3, 0.3, 11102076.559, 11102076.559
11102076.559, 1.0
*EXPANSION, TYPE=ORTHO, ZERO=0.0
5.6e-06, 5.6e-06, 5.6e-06, -1.0
5.6e-06, 5.6e-06, 5.6e-06, 1.0
*SOLID SECTION, ELSET=E32, MATERIAL=Alloy_713LC_E32
********************************************************************************
*MATERIAL, NAME=Alloy_713LC_E33
**  ELSET VOL FRAC = 1.0
*DENSITY
0.000748533, -1.0
0.000748533, 1.0
*ELASTIC, TYPE=ENGINEERING CONSTANTS
28873091.7796, 28873091.7796, 28873091.7796, 0.3, 0.3, 0.3, 11105035.2998, 11105035.2998
11105035.2998, -1.0
28865399.0534, 28865399.0534, 28865399.0534, 0.3, 0.3, 0.3, 11102076.559, 11102076.559
11102076.559, 1.0
*EXPANSION, TYPE=ORTHO, ZERO=0.0
5.6e-06, 5.6e-06, 5.6e-06, -1.0
5.6e-06, 5.6e-06, 5.6e-06, 1.0
*SOLID SECTION, ELSET=E33, MATERIAL=Alloy_713LC_E33
*MATERIAL, NAME=Alloy_713LC_E34
**  ELSET VOL FRAC = 1.0
*DENSITY
0.000748533, -1.0
0.000748533, 1.0
*ELASTIC, TYPE=ENGINEERING CONSTANTS
28873091.7796, 28873091.7796, 28873091.7796, 0.3, 0.3, 0.3, 11105035.2998, 11105035.2998
11105035.2998, -1.0
28865399.0534, 28865399.0534, 28865399.0534, 0.3, 0.3, 0.3, 11102076.559, 11102076.559
11102076.559, 1.0
*EXPANSION, TYPE=ORTHO, ZERO=0.0
5.6e-06, 5.6e-06, 5.6e-06, -1.0
5.6e-06, 5.6e-06, 5.6e-06, 1.0
*SOLID SECTION, ELSET=E34, MATERIAL=Alloy_713LC_E34
*MATERIAL, NAME=Alloy_713LC_E35
**  ELSET VOL FRAC = 1.0
*DENSITY
0.000748533, -1.0
0.000748533, 1.0
*ELASTIC, TYPE=ENGINEERING CONSTANTS
28873091.7796, 28873091.7796, 28873091.7796, 0.3, 0.3, 0.3, 11105035.2998, 11105035.2998
11105035.2998, -1.0
28865399.0534, 28865399.0534, 28865399.0534, 0.3, 0.3, 0.3, 11102076.559, 11102076.559
11102076.559, 1.0
*EXPANSION, TYPE=ORTHO, ZERO=0.0
5.6e-06, 5.6e-06, 5.6e-06, -1.0
5.6e-06, 5.6e-06, 5.6e-06, 1.0
*SOLID SECTION, ELSET=E35, MATERIAL=Alloy_713LC_E35
*MATERIAL, NAME=Alloy_713LC_E36
**  ELSET VOL FRAC = 1.0
*DENSITY
0.000748533, -1.0
0.000748533, 1.0
*ELASTIC, TYPE=ENGINEERING CONSTANTS
28873091.7796, 28873091.7796, 28873091.7796, 0.3, 0.3, 0.3, 11105035.2998, 11105035.2998
11105035.2998, -1.0
28865399.0534, 28865399.0534, 28865399.0534, 0.3, 0.3, 0.3, 11102076.559, 11102076.559
11102076.559, 1.0
*EXPANSION, TYPE=ORTHO, ZERO=0.0
5.6e-06, 5.6e-06, 5.6e-06, -1.0
5.6e-06, 5.6e-06, 5.6e-06, 1.0
*SOLID SECTION, ELSET=E36, MATERIAL=Alloy_713LC_E36
*MATERIAL, NAME=Alloy_713LC_E37
**  ELSET VOL FRAC = 1.0
*DENSITY
0.000748533, -1.0
0.000748533, 1.0
*ELASTIC, TYPE=ENGINEERING CONSTANTS
28873091.7796, 28873091.7796, 28873091.7796, 0.3, 0.3, 0.3, 11105035.2998, 11105035.2998
11105035.2998, -1.0
28865399.0534, 28865399.0534, 28865399.0534, 0.3, 0.3, 0.3, 11102076.559, 11102076.559
11102076.559, 1.0
*EXPANSION, TYPE=ORTHO, ZERO=0.0
5.6e-06, 5.6e-06, 5.6e-06, -1.0
5.6e-06, 5.6e-06, 5.6e-06, 1.0
*SOLID SECTION, ELSET=E37, MATERIAL=Alloy_713LC_E37
*MATERIAL, NAME=Alloy_713LC_E38
**  ELSET VOL FRAC = 1.0
*DENSITY
0.000748533, -1.0
0.000748533, 1.0
*ELASTIC, TYPE=ENGINEERING CONSTANTS
28873091.7796, 28873091.7796, 28873091.7796, 0.3, 0.3, 0.3, 11105035.2998, 11105035.2998
11105035.2998, -1.0
28865399.0534, 28865399.0534, 28865399.0534, 0.3, 0.3, 0.3, 11102076.559, 11102076.559
11102076.559, 1.0
*EXPANSION, TYPE=ORTHO, ZERO=0.0
5.6e-06, 5.6e-06, 5.6e-06, -1.0
5.6e-06, 5.6e-06, 5.6e-06, 1.0
*SOLID SECTION, ELSET=E38, MATERIAL=Alloy_713LC_E38
*MATERIAL, NAME=Alloy_713LC_E39
**  ELSET VOL FRAC = 1.0
*DENSITY
0.000748533, -1.0
0.000748533, 1.0
*ELASTIC, TYPE=ENGINEERING CONSTANTS
28873091.7796, 28873091.7796, 28873091.7796, 0.3, 0.3, 0.3, 11105035.2998, 11105035.2998
11105035.2998, -1.0
28865399.0534, 28865399.0534, 28865399.0534, 0.3, 0.3, 0.3, 11102076.559, 11102076.559
11102076.559, 1.0
*EXPANSION, TYPE=ORTHO, ZERO=0.0
5.6e-06, 5.6e-06, 5.6e-06, -1.0
5.6e-06, 5.6e-06, 5.6e-06, 1.0
*SOLID SECTION, ELSET=E39, MATERIAL=Alloy_713LC_E39
*MATERIAL, NAME=Alloy_713LC_E40
**  ELSET VOL FRAC = 1.0
*DENSITY
0.000748533, -1.0
0.000748533, 1.0
*ELASTIC, TYPE=ENGINEERING CONSTANTS
28873091.7796, 28873091.7796, 28873091.7796, 0.3, 0.3, 0.3, 11105035.2998, 11105035.2998
11105035.2998, -1.0
28865399.0534, 28865399.0534, 28865399.0534, 0.3, 0.3, 0.3, 11102076.559, 11102076.559
11102076.559, 1.0
*EXPANSION, TYPE=ORTHO, ZERO=0.0
5.6e-06, 5.6e-06, 5.6e-06, -1.0
5.6e-06, 5.6e-06, 5.6e-06, 1.0
*SOLID SECTION, ELSET=E40, MATERIAL=Alloy_713LC_E40
*MATERIAL, NAME=Alloy_713LC_E41
**  ELSET VOL FRAC = 1.0
*DENSITY
0.000748533, -1.0
0.000748533, 1.0
*ELASTIC, TYPE=ENGINEERING CONSTANTS
28873091.7796, 28873091.7796, 28873091.7796, 0.3, 0.3, 0.3, 11105035.2998, 11105035.2998
11105035.2998, -1.0
28865399.0534, 28865399.0534, 28865399.0534, 0.3, 0.3, 0.3, 11102076.559, 11102076.559
11102076.559, 1.0
*EXPANSION, TYPE=ORTHO, ZERO=0.0
5.6e-06, 5.6e-06, 5.6e-06, -1.0
5.6e-06, 5.6e-06, 5.6e-06, 1.0
*SOLID SECTION, ELSET=E41, MATERIAL=Alloy_713LC_E41
*MATERIAL, NAME=Alloy_713LC_E42
**  ELSET VOL FRAC = 1.0
*DENSITY
0.000748533, -1.0
0.000748533, 1.0
*ELASTIC, TYPE=ENGINEERING CONSTANTS
28873091.7796, 28873091.7796, 28873091.7796, 0.3, 0.3, 0.3, 11105035.2998, 11105035.2998
11105035.2998, -1.0
28865399.0534, 28865399.0534, 28865399.0534, 0.3, 0.3, 0.3, 11102076.559, 11102076.559
11102076.559, 1.0
*EXPANSION, TYPE=ORTHO, ZERO=0.0
5.6e-06, 5.6e-06, 5.6e-06, -1.0
5.6e-06, 5.6e-06, 5.6e-06, 1.0
*SOLID SECTION, ELSET=E42, MATERIAL=Alloy_713LC_E42
*MATERIAL, NAME=Alloy_713LC_E43
**  ELSET VOL FRAC = 1.0
*DENSITY
0.000748533, -1.0
0.000748533, 1.0
*ELASTIC, TYPE=ENGINEERING CONSTANTS
28873091.7796, 28873091.7796, 28873091.7796, 0.3, 0.3, 0.3, 11105035.2998, 11105035.2998
11105035.2998, -1.0
28865399.0534, 28865399.0534, 28865399.0534, 0.3, 0.3, 0.3, 11102076.559, 11102076.559
11102076.559, 1.0
*EXPANSION, TYPE=ORTHO, ZERO=0.0
5.6e-06, 5.6e-06, 5.6e-06, -1.0
5.6e-06, 5.6e-06, 5.6e-06, 1.0
*SOLID SECTION, ELSET=E43, MATERIAL=Alloy_713LC_E43
*MATERIAL, NAME=Alloy_713LC_E44
**  ELSET VOL FRAC = 1.0
*DENSITY
0.000748533, -1.0
0.000748533, 1.0
*ELASTIC, TYPE=ENGINEERING CONSTANTS
28873091.7796, 28873091.7796, 28873091.7796, 0.3, 0.3, 0.3, 11105035.2998, 11105035.2998
11105035.2998, -1.0
28865399.0534, 28865399.0534, 28865399.0534, 0.3, 0.3, 0.3, 11102076.559, 11102076.559
11102076.559, 1.0
*EXPANSION, TYPE=ORTHO, ZERO=0.0
5.6e-06, 5.6e-06, 5.6e-06, -1.0
5.6e-06, 5.6e-06, 5.6e-06, 1.0
*SOLID SECTION, ELSET=E44, MATERIAL=Alloy_713LC_E44
*MATERIAL, NAME=Alloy_713LC_E45
**  ELSET VOL FRAC = 1.0
*DENSITY
0.000748533, -1.0
0.000748533, 1.0
*ELASTIC, TYPE=ENGINEERING CONSTANTS
28873091.7796, 28873091.7796, 28873091.7796, 0.3, 0.3, 0.3, 11105035.2998, 11105035.2998
11105035.2998, -1.0
28865399.0534, 28865399.0534, 28865399.0534, 0.3, 0.3, 0.3, 11102076.559, 11102076.559
11102076.559, 1.0
*EXPANSION, TYPE=ORTHO, ZERO=0.0
5.6e-06, 5.6e-06, 5.6e-06, -1.0
5.6e-06, 5.6e-06, 5.6e-06, 1.0
*SOLID SECTION, ELSET=E45, MATERIAL=Alloy_713LC_E45
*MATERIAL, NAME=Alloy_713LC_E46
**  ELSET VOL FRAC = 1.0
*DENSITY
0.000748533, -1.0
0.000748533, 1.0
*ELASTIC, TYPE=ENGINEERING CONSTANTS
28873091.7796, 28873091.7796, 28873091.7796, 0.3, 0.3, 0.3, 11105035.2998, 11105035.2998
11105035.2998, -1.0
28865399.0534, 28865399.0534, 28865399.0534, 0.3, 0.3, 0.3, 11102076.559, 11102076.559
11102076.559, 1.0
*EXPANSION, TYPE=ORTHO, ZERO=0.0
5.6e-06, 5.6e-06, 5.6e-06, -1.0
5.6e-06, 5.6e-06, 5.6e-06, 1.0
*SOLID SECTION, ELSET=E46, MATERIAL=Alloy_713LC_E46
*MATERIAL, NAME=Alloy_713LC_E47
**  ELSET VOL FRAC = 1.0
*DENSITY
0.000748533, -1.0
0.000748533, 1.0
*ELASTIC, TYPE=ENGINEERING CONSTANTS
28873091.7796, 28873091.7796, 28873091.7796, 0.3, 0.3, 0.3, 11105035.2998, 11105035.2998
11105035.2998, -1.0
28865399.0534, 28865399.0534, 28865399.0534, 0.3, 0.3, 0.3, 11102076.559, 11102076.559
11102076.559, 1.0
*EXPANSION, TYPE=ORTHO, ZERO=0.0
5.6e-06, 5.6e-06, 5.6e-06, -1.0
5.6e-06, 5.6e-06, 5.6e-06, 1.0
*SOLID SECTION, ELSET=E47, MATERIAL=Alloy_713LC_E47
*MATERIAL, NAME=Alloy_713LC_E48
**  ELSET VOL FRAC = 1.0
*DENSITY
0.000748533, -1.0
0.000748533, 1.0
*ELASTIC, TYPE=ENGINEERING CONSTANTS
28873091.7796, 28873091.7796, 28873091.7796, 0.3, 0.3, 0.3, 11105035.2998, 11105035.2998
11105035.2998, -1.0
28865399.0534, 28865399.0534, 28865399.0534, 0.3, 0.3, 0.3, 11102076.559, 11102076.559
11102076.559, 1.0
*EXPANSION, TYPE=ORTHO, ZERO=0.0
5.6e-06, 5.6e-06, 5.6e-06, -1.0
5.6e-06, 5.6e-06, 5.6e-06, 1.0
*SOLID SECTION, ELSET=E48, MATERIAL=Alloy_713LC_E48
*MATERIAL, NAME=Alloy_713LC_E49
**  ELSET VOL FRAC = 1.0
*DENSITY
0.000748533, -1.0
0.000748533, 1.0
*ELASTIC, TYPE=ENGINEERING CONSTANTS
28873091.7796, 28873091.7796, 28873091.7796, 0.3, 0.3, 0.3, 11105035.2998, 11105035.2998
11105035.2998, -1.0
28865399.0534, 28865399.0534, 28865399.0534, 0.3, 0.3, 0.3, 11102076.559, 11102076.559
11102076.559, 1.0
*EXPANSION, TYPE=ORTHO, ZERO=0.0
5.6e-06, 5.6e-06, 5.6e-06, -1.0
5.6e-06, 5.6e-06, 5.6e-06, 1.0
*SOLID SECTION, ELSET=E49, MATERIAL=Alloy_713LC_E49
*MATERIAL, NAME=Alloy_713LC_E50
**  ELSET VOL FRAC = 1.0
*DENSITY
0.000748533, -1.0
0.000748533, 1.0
*ELASTIC, TYPE=ENGINEERING CONSTANTS
28873091.7796, 28873091.7796, 28873091.7796, 0.3, 0.3, 0.3, 11105035.2998, 11105035.2998
11105035.2998, -1.0
28865399.0534, 28865399.0534, 28865399.0534, 0.3, 0.3, 0.3, 11102076.559, 11102076.559
11102076.559, 1.0
*EXPANSION, TYPE=ORTHO, ZERO=0.0
5.6e-06, 5.6e-06, 5.6e-06, -1.0
5.6e-06, 5.6e-06, 5.6e-06, 1.0
*SOLID SECTION, ELSET=E50, MATERIAL=Alloy_713LC_E50
*MATERIAL, NAME=Alloy_713LC_E51
**  ELSET VOL FRAC = 1.0
*DENSITY
0.000748533, -1.0
0.000748533, 1.0
*ELASTIC, TYPE=ENGINEERING CONSTANTS
28873091.7796, 28873091.7796, 28873091.7796, 0.3, 0.3, 0.3, 11105035.2998, 11105035.2998
11105035.2998, -1.0
28865399.0534, 28865399.0534, 28865399.0534, 0.3, 0.3, 0.3, 11102076.559, 11102076.559
11102076.559, 1.0
*EXPANSION, TYPE=ORTHO, ZERO=0.0
5.6e-06, 5.6e-06, 5.6e-06, -1.0
5.6e-06, 5.6e-06, 5.6e-06, 1.0
*SOLID SECTION, ELSET=E51, MATERIAL=Alloy_713LC_E51
*MATERIAL, NAME=Alloy_713LC_E52
**  ELSET VOL FRAC = 1.0
*DENSITY
0.000748533, -1.0
0.000748533, 1.0
*ELASTIC, TYPE=ENGINEERING CONSTANTS
28873091.7796, 28873091.7796, 28873091.7796, 0.3, 0.3, 0.3, 11105035.2998, 11105035.2998
11105035.2998, -1.0
28865399.0534, 28865399.0534, 28865399.0534, 0.3, 0.3, 0.3, 11102076.559, 11102076.559
11102076.559, 1.0
*EXPANSION, TYPE=ORTHO, ZERO=0.0
5.6e-06, 5.6e-06, 5.6e-06, -1.0
5.6e-06, 5.6e-06, 5.6e-06, 1.0
*SOLID SECTION, ELSET=E52, MATERIAL=Alloy_713LC_E52
*MATERIAL, NAME=Alloy_713LC_E53
**  ELSET VOL FRAC = 1.0
*DENSITY
0.000748533, -1.0
0.000748533, 1.0
*ELASTIC, TYPE=ENGINEERING CONSTANTS
28873091.7796, 28873091.7796, 28873091.7796, 0.3, 0.3, 0.3, 11105035.2998, 11105035.2998
11105035.2998, -1.0
28865399.0534, 28865399.0534, 28865399.0534, 0.3, 0.3, 0.3, 11102076.559, 11102076.559
11102076.559, 1.0
*EXPANSION, TYPE=ORTHO, ZERO=0.0
5.6e-06, 5.6e-06, 5.6e-06, -1.0
5.6e-06, 5.6e-06, 5.6e-06, 1.0
*SOLID SECTION, ELSET=E53, MATERIAL=Alloy_713LC_E53
*MATERIAL, NAME=Alloy_713LC_E54
**  ELSET VOL FRAC = 1.0
*DENSITY
0.000748533, -1.0
0.000748533, 1.0
*ELASTIC, TYPE=ENGINEERING CONSTANTS
28873091.7796, 28873091.7796, 28873091.7796, 0.3, 0.3, 0.3, 11105035.2998, 11105035.2998
11105035.2998, -1.0
28865399.0534, 28865399.0534, 28865399.0534, 0.3, 0.3, 0.3, 11102076.559, 11102076.559
11102076.559, 1.0
*EXPANSION, TYPE=ORTHO, ZERO=0.0
5.6e-06, 5.6e-06, 5.6e-06, -1.0
5.6e-06, 5.6e-06, 5.6e-06, 1.0
*SOLID SECTION, ELSET=E54, MATERIAL=Alloy_713LC_E54
*MATERIAL, NAME=Alloy_713LC_E55
**  ELSET VOL FRAC = 1.0
*DENSITY
0.000748533, -1.0
0.000748533, 1.0
*ELASTIC, TYPE=ENGINEERING CONSTANTS
28873091.7796, 28873091.7796, 28873091.7796, 0.3, 0.3, 0.3, 11105035.2998, 11105035.2998
11105035.2998, -1.0
28865399.0534, 28865399.0534, 28865399.0534, 0.3, 0.3, 0.3, 11102076.559, 11102076.559
11102076.559, 1.0
*EXPANSION, TYPE=ORTHO, ZERO=0.0
5.6e-06, 5.6e-06, 5.6e-06, -1.0
5.6e-06, 5.6e-06, 5.6e-06, 1.0
*SOLID SECTION, ELSET=E55, MATERIAL=Alloy_713LC_E55
*MATERIAL, NAME=Alloy_713LC_E56
**  ELSET VOL FRAC = 1.0
*DENSITY
0.000748533, -1.0
0.000748533, 1.0
*ELASTIC, TYPE=ENGINEERING CONSTANTS
28873091.7796, 28873091.7796, 28873091.7796, 0.3, 0.3, 0.3, 11105035.2998, 11105035.2998
11105035.2998, -1.0
28865399.0534, 28865399.0534, 28865399.0534, 0.3, 0.3, 0.3, 11102076.559, 11102076.559
11102076.559, 1.0
*EXPANSION, TYPE=ORTHO, ZERO=0.0
5.6e-06, 5.6e-06, 5.6e-06, -1.0
5.6e-06, 5.6e-06, 5.6e-06, 1.0
*SOLID SECTION, ELSET=E56, MATERIAL=Alloy_713LC_E56
*MATERIAL, NAME=Alloy_713LC_E57
**  ELSET VOL FRAC = 1.0
*DENSITY
0.000748533, -1.0
0.000748533, 1.0
*ELASTIC, TYPE=ENGINEERING CONSTANTS
28873091.7796, 28873091.7796, 28873091.7796, 0.3, 0.3, 0.3, 11105035.2998, 11105035.2998
11105035.2998, -1.0
28865399.0534, 28865399.0534, 28865399.0534, 0.3, 0.3, 0.3, 11102076.559, 11102076.559
11102076.559, 1.0
*EXPANSION, TYPE=ORTHO, ZERO=0.0
5.6e-06, 5.6e-06, 5.6e-06, -1.0
5.6e-06, 5.6e-06, 5.6e-06, 1.0
*SOLID SECTION, ELSET=E57, MATERIAL=Alloy_713LC_E57
*MATERIAL, NAME=Alloy_713LC_E58
**  ELSET VOL FRAC = 1.0
*DENSITY
0.000748533, -1.0
0.000748533, 1.0
*ELASTIC, TYPE=ENGINEERING CONSTANTS
28873091.7796, 28873091.7796, 28873091.7796, 0.3, 0.3, 0.3, 11105035.2998, 11105035.2998
11105035.2998, -1.0
28865399.0534, 28865399.0534, 28865399.0534, 0.3, 0.3, 0.3, 11102076.559, 11102076.559
11102076.559, 1.0
*EXPANSION, TYPE=ORTHO, ZERO=0.0
5.6e-06, 5.6e-06, 5.6e-06, -1.0
5.6e-06, 5.6e-06, 5.6e-06, 1.0
*SOLID SECTION, ELSET=E58, MATERIAL=Alloy_713LC_E58
*MATERIAL, NAME=Alloy_713LC_E59
**  ELSET VOL FRAC = 1.0
*DENSITY
0.000748533, -1.0
0.000748533, 1.0
*ELASTIC, TYPE=ENGINEERING CONSTANTS
28873091.7796, 28873091.7796, 28873091.7796, 0.3, 0.3, 0.3, 11105035.2998, 11105035.2998
11105035.2998, -1.0
28865399.0534, 28865399.0534, 28865399.0534, 0.3, 0.3, 0.3, 11102076.559, 11102076.559
11102076.559, 1.0
*EXPANSION, TYPE=ORTHO, ZERO=0.0
5.6e-06, 5.6e-06, 5.6e-06, -1.0
5.6e-06, 5.6e-06, 5.6e-06, 1.0
*SOLID SECTION, ELSET=E59, MATERIAL=Alloy_713LC_E59
*MATERIAL, NAME=Alloy_713LC_E60
**  ELSET VOL FRAC = 1.0
*DENSITY
0.000748533, -1.0
0.000748533, 1.0
*ELASTIC, TYPE=ENGINEERING CONSTANTS
28873091.7796, 28873091.7796, 28873091.7796, 0.3, 0.3, 0.3, 11105035.2998, 11105035.2998
11105035.2998, -1.0
28865399.0534, 28865399.0534, 28865399.0534, 0.3, 0.3, 0.3, 11102076.559, 11102076.559
11102076.559, 1.0
*EXPANSION, TYPE=ORTHO, ZERO=0.0
5.6e-06, 5.6e-06, 5.6e-06, -1.0
5.6e-06, 5.6e-06, 5.6e-06, 1.0
*SOLID SECTION, ELSET=E60, MATERIAL=Alloy_713LC_E60
*MATERIAL, NAME=Alloy_713LC_E61
**  ELSET VOL FRAC = 1.0
*DENSITY
0.000748533, -1.0
0.000748533, 1.0
*ELASTIC, TYPE=ENGINEERING CONSTANTS
28873091.7796, 28873091.7796, 28873091.7796, 0.3, 0.3, 0.3, 11105035.2998, 11105035.2998
11105035.2998, -1.0
28865399.0534, 28865399.0534, 28865399.0534, 0.3, 0.3, 0.3, 11102076.559, 11102076.559
11102076.559, 1.0
*EXPANSION, TYPE=ORTHO, ZERO=0.0
5.6e-06, 5.6e-06, 5.6e-06, -1.0
5.6e-06, 5.6e-06, 5.6e-06, 1.0
*SOLID SECTION, ELSET=E61, MATERIAL=Alloy_713LC_E61
*MATERIAL, NAME=Alloy_713LC_E62
**  ELSET VOL FRAC = 1.0
*DENSITY
0.000748533, -1.0
0.000748533, 1.0
*ELASTIC, TYPE=ENGINEERING CONSTANTS
28873091.7796, 28873091.7796, 28873091.7796, 0.3, 0.3, 0.3, 11105035.2998, 11105035.2998
11105035.2998, -1.0
28865399.0534, 28865399.0534, 28865399.0534, 0.3, 0.3, 0.3, 11102076.559, 11102076.559
11102076.559, 1.0
*EXPANSION, TYPE=ORTHO, ZERO=0.0
5.6e-06, 5.6e-06, 5.6e-06, -1.0
5.6e-06, 5.6e-06, 5.6e-06, 1.0
*SOLID SECTION, ELSET=E62, MATERIAL=Alloy_713LC_E62
*MATERIAL, NAME=Alloy_713LC_E63
**  ELSET VOL FRAC = 1.0
*DENSITY
0.000748533, -1.0
0.000748533, 1.0
*ELASTIC, TYPE=ENGINEERING CONSTANTS
28873091.7796, 28873091.7796, 28873091.7796, 0.3, 0.3, 0.3, 11105035.2998, 11105035.2998
11105035.2998, -1.0
28865399.0534, 28865399.0534, 28865399.0534, 0.3, 0.3, 0.3, 11102076.559, 11102076.559
11102076.559, 1.0
*EXPANSION, TYPE=ORTHO, ZERO=0.0
5.6e-06, 5.6e-06, 5.6e-06, -1.0
5.6e-06, 5.6e-06, 5.6e-06, 1.0
*SOLID SECTION, ELSET=E63, MATERIAL=Alloy_713LC_E63
*MATERIAL, NAME=Alloy_713LC_E64
**  ELSET VOL FRAC = 1.0
*DENSITY
0.000748533, -1.0
0.000748533, 1.0
*ELASTIC, TYPE=ENGINEERING CONSTANTS
28873091.7796, 28873091.7796, 28873091.7796, 0.3, 0.3, 0.3, 11105035.2998, 11105035.2998
11105035.2998, -1.0
28865399.0534, 28865399.0534, 28865399.0534, 0.3, 0.3, 0.3, 11102076.559, 11102076.559
11102076.559, 1.0
*EXPANSION, TYPE=ORTHO, ZERO=0.0
5.6e-06, 5.6e-06, 5.6e-06, -1.0
5.6e-06, 5.6e-06, 5.6e-06, 1.0
*SOLID SECTION, ELSET=E64, MATERIAL=Alloy_713LC_E64
********************************************************************************
*INITIAL CONDITIONS, TYPE=TEMPERATURE
NALL, 0.0
********************************************************************************
*BOUNDARY
363, 1
363, 2
363, 3
368, 1
368, 2
368, 3
373, 1
373, 2
373, 3
378, 1
378, 2
378, 3
383, 1
383, 2
383, 3
388, 1
388, 2
388, 3
393, 1
393, 2
** ... 118 like lines cut
*STEP
*STATIC
*DLOAD
2, P2, 10000.0
4, P2, 10000.0
6, P2, 10000.0
8, P2, 10000.0
10, P2, 10000.0
12, P2, 10000.0
14, P2, 10000.0
16, P2, 10000.0
18, P2, 10000.0
20, P2, 10000.0
22, P2, 10000.0
24, P2, 10000.0
26, P2, 10000.0
28, P2, 10000.0
30, P2, 10000.0
32, P2, 10000.0
34, P2, 10000.0
36, P2, 10000.0
38, P2, 10000.0
40, P2, 10000.0
** ... 12 like lines cut
********************************************************************************
*NODE PRINT, NSET=NALL
U
*NODE FILE, OUTPUT=3D
U
*EL PRINT, ELSET=EALL
S
*EL FILE, OUTPUT=3D
S
*END STEP
********************************************************************************
