*HEADING
MODEL DYNAMICALLY GENERATED PLT_RS4_X1.inp
** THIS MESH WAS GENERATED ON Wednesday, April 3rd, 2013 at 12:49:32 PM
********************************************************************************
**   NEX = 40
**   Pressure = 10000.0
**   matty = Alloy_713LC
********************************************************************************
** <BEGIN> ~-~~-~~-~~-~~-~~-~~-~~-~~-~~-~~-~~-~~-~~-~~-~ NA_MESH NODES
*NODE, NSET=NA_MESH
1, 0.0, 0.0, -0.5
2, 0.0, 0.0, -0.25
3, 0.0, 0.0, 0.0
4, 0.0, 0.0, 0.25
5, 0.0, 0.0, 0.5
6, 0.0, 0.25, -0.5
8, 0.0, 0.25, 0.0
10, 0.0, 0.25, 0.5
11, 0.0, 0.5, -0.5
12, 0.0, 0.5, -0.25
13, 0.0, 0.5, 0.0
14, 0.0, 0.5, 0.25
15, 0.0, 0.5, 0.5
16, 0.0, 0.75, -0.5
18, 0.0, 0.75, 0.0
20, 0.0, 0.75, 0.5
21, 0.0, 1.0, -0.5
22, 0.0, 1.0, -0.25
23, 0.0, 1.0, 0.0
24, 0.0, 1.0, 0.25
** ... 257 like lines cut
** <END> ~-~~-~~-~~-~~-~~-~~-~~-~~-~~-~~-~~-~~-~~-~~-~ NA_MESH NODES
** <BEGIN> ~-~~-~~-~~-~~-~~-~~-~~-~~-~~-~~-~~-~~-~~-~~-~ NB_MESH NODES
*NODE, NSET=NB_MESH
406, 0.0, 0.0, -0.5
407, 0.0, 0.0, -0.25
408, 0.0, 0.0, 0.0
409, 0.0, 0.0, 0.25
410, 0.0, 0.0, 0.5
411, -0.25, -0.125, -0.5
413, -0.25, -0.125, 0.0
415, -0.25, -0.125, 0.5
416, -0.5, -0.25, -0.5
417, -0.5, -0.25, -0.25
418, -0.5, -0.25, 0.0
419, -0.5, -0.25, 0.25
420, -0.5, -0.25, 0.5
421, -0.75, -0.375, -0.5
423, -0.75, -0.375, 0.0
425, -0.75, -0.375, 0.5
426, -1.0, -0.5, -0.5
427, -1.0, -0.5, -0.25
428, -1.0, -0.5, 0.0
429, -1.0, -0.5, 0.25
** ... 377 like lines cut
** <END> ~-~~-~~-~~-~~-~~-~~-~~-~~-~~-~~-~~-~~-~~-~~-~ NB_MESH NODES
*** <BEGIN> EXTRA NODES FOR JOIN EQUATIONS ARB
*NODE, NSET=ARB_X
991, 0.0, 1.33333333333, -0.25
992, 0.0, 1.66666666667, 0.0
993, 0.0, 0.333333333333, 0.25
994, 0.0, 1.66666666667, 0.25
995, 0.0, 0.333333333333, 0.0
996, 0.0, 1.66666666667, 0.5
997, 0.0, 0.666666666667, 0.5
998, 0.0, 0.666666666667, 0.25
999, 0.0, 1.0, 0.5
1000, 0.0, 0.666666666667, 0.0
1001, 0.0, 1.33333333333, 0.0
1002, 0.0, 1.0, 0.25
1003, 0.0, 1.33333333333, 0.25
1004, 0.0, 0.333333333333, -0.25
1005, 0.0, 1.33333333333, 0.5
1006, 0.0, 0.333333333333, 0.5
1007, 0.0, 1.0, -0.5
1008, 0.0, 0.666666666667, -0.25
1009, 0.0, 0.0, 0.25
1010, 0.0, 0.166666666667, 0.0
** ... 33 like lines cut
*** <END> EXTRA NODES FOR JOIN EQUATIONS ARB
*NSET, NSET=NALL
NA_MESH, NB_MESH
** <BEGIN> ~-~~-~~-~~-~~-~~-~~-~~-~~-~~-~~-~~-~~-~~-~~-~ ARB_A JOIN NODE SET
*NSET, NSET=ARB_A
1, 2, 3, 4, 5, 6, 8, 10, 
11, 12, 13, 14, 15, 16, 18, 20, 
21, 22, 23, 24, 25, 26, 28, 30, 
31, 32, 33, 34, 35, 36, 38, 40, 
41, 42, 43, 44, 45
** <END> ~-~~-~~-~~-~~-~~-~~-~~-~~-~~-~~-~~-~~-~~-~~-~ ARB_A JOIN NODE SET
** <BEGIN> ~-~~-~~-~~-~~-~~-~~-~~-~~-~~-~~-~~-~~-~~-~~-~ ARB_B JOIN NODE SET
*NSET, NSET=ARB_B
406, 407, 408, 409, 410, 451, 453, 455, 
496, 497, 498, 499, 500, 541, 543, 545, 
586, 587, 588, 589, 590, 631, 633, 635, 
676, 677, 678, 679, 680, 721, 723, 725, 
766, 767, 768, 769, 770, 811, 813, 815, 
856, 857, 858, 859, 860, 901, 903, 905, 
946, 947, 948, 949, 950
** <END> ~-~~-~~-~~-~~-~~-~~-~~-~~-~~-~~-~~-~~-~~-~~-~ ARB_B JOIN NODE SET
*NSET, NSET=ARB
ARB_A, ARB_B, ARB_X
********************************************************************************
** <BEGIN> ~-~~-~~-~~-~~-~~-~~-~~-~~-~~-~~-~~-~~-~~-~~-~ ARB JOIN FACE COORDS
*TRANSFORM, NSET=ARB, TYPE=R
0.0, 0.0, 1.0, 0.0, 2.0, 0.0
** <END> ~-~~-~~-~~-~~-~~-~~-~~-~~-~~-~~-~~-~~-~~-~~-~ ARB JOIN FACE COORDS
********************************************************************************
** <BEGIN> ~-~~-~~-~~-~~-~ ARB_B JOIN EQUATIONS
*EQUATION
2
1012, 1, -1.0, 1, 1, 1.0
*EQUATION
2
406, 1, -1.0, 1012, 1, 1.0
*EQUATION
2
1012, 2, -1.0, 1, 2, 1.0
*EQUATION
2
406, 2, -1.0, 1012, 2, 1.0
*EQUATION
2
1012, 3, -1.0, 1, 3, 1.0
*EQUATION
2
406, 3, -1.0, 1012, 3, 1.0
*EQUATION
8
1014, 1, -1.0, 1, 1, 0.166666666667, 3, 1, 0.166666666667, 
11, 1, 0.0555555555556, 13, 1, 0.0555555555556, 2, 1, 0.333333333333, 
6, 1, 0.111111111111, 8, 1, 0.111111111111
*EQUATION
2
407, 1, -1.0, 1014, 1, 1.0
*EQUATION
8
1014, 2, -1.0, 1, 2, 0.166666666667, 3, 2, 0.166666666667, 
11, 2, 0.0555555555556, 13, 2, 0.0555555555556, 2, 2, 0.333333333333, 
6, 2, 0.111111111111, 8, 2, 0.111111111111
*EQUATION
2
407, 2, -1.0, 1014, 2, 1.0
*EQUATION
8
1014, 3, -1.0, 1, 3, 0.166666666667, 3, 3, 0.166666666667, 
11, 3, 0.0555555555556, 13, 3, 0.0555555555556, 2, 3, 0.333333333333, 
6, 3, 0.111111111111, 8, 3, 0.111111111111
*EQUATION
2
407, 3, -1.0, 1014, 3, 1.0
*EQUATION
2
1017, 1, -1.0, 3, 1, 1.0
*EQUATION
2
408, 1, -1.0, 1017, 1, 1.0
*EQUATION
2
1017, 2, -1.0, 3, 2, 1.0
*EQUATION
2
408, 2, -1.0, 1017, 2, 1.0
*EQUATION
2
1017, 3, -1.0, 3, 3, 1.0
*EQUATION
2
408, 3, -1.0, 1017, 3, 1.0
*EQUATION
8
1009, 1, -1.0, 3, 1, 0.166666666667, 5, 1, 0.166666666667, 
13, 1, 0.0555555555556, 15, 1, 0.0555555555556, 4, 1, 0.333333333333, 
8, 1, 0.111111111111, 10, 1, 0.111111111111
*EQUATION
2
409, 1, -1.0, 1009, 1, 1.0
*EQUATION
8
1009, 2, -1.0, 3, 2, 0.166666666667, 5, 2, 0.166666666667, 
13, 2, 0.0555555555556, 15, 2, 0.0555555555556, 4, 2, 0.333333333333, 
8, 2, 0.111111111111, 10, 2, 0.111111111111
*EQUATION
2
409, 2, -1.0, 1009, 2, 1.0
*EQUATION
8
1009, 3, -1.0, 3, 3, 0.166666666667, 5, 3, 0.166666666667, 
13, 3, 0.0555555555556, 15, 3, 0.0555555555556, 4, 3, 0.333333333333, 
8, 3, 0.111111111111, 10, 3, 0.111111111111
*EQUATION
2
409, 3, -1.0, 1009, 3, 1.0
*EQUATION
2
1034, 1, -1.0, 5, 1, 1.0
*EQUATION
2
410, 1, -1.0, 1034, 1, 1.0
*EQUATION
2
1034, 2, -1.0, 5, 2, 1.0
*EQUATION
2
410, 2, -1.0, 1034, 2, 1.0
*EQUATION
2
1034, 3, -1.0, 5, 3, 1.0
*EQUATION
2
410, 3, -1.0, 1034, 3, 1.0
*EQUATION
8
1027, 1, -1.0, 1, 1, 0.222222222222, 3, 1, 0.0740740740741, 
11, 1, 0.177777777778, 13, 1, 0.037037037037, 2, 1, 0.148148148148, 
6, 1, 0.266666666667, 12, 1, 0.0740740740741
*EQUATION
2
451, 1, -1.0, 1027, 1, 1.0
*EQUATION
8
1027, 2, -1.0, 1, 2, 0.222222222222, 3, 2, 0.0740740740741, 
11, 2, 0.177777777778, 13, 2, 0.037037037037, 2, 2, 0.148148148148, 
6, 2, 0.266666666667, 12, 2, 0.0740740740741
*EQUATION
2
451, 2, -1.0, 1027, 2, 1.0
*EQUATION
8
1027, 3, -1.0, 1, 3, 0.222222222222, 3, 3, 0.0740740740741, 
11, 3, 0.177777777778, 13, 3, 0.037037037037, 2, 3, 0.148148148148, 
6, 3, 0.266666666667, 12, 3, 0.0740740740741
*EQUATION
2
451, 3, -1.0, 1027, 3, 1.0
*EQUATION
8
1010, 1, -1.0, 3, 1, 0.222222222222, 1, 1, 0.0740740740741, 
13, 1, 0.177777777778, 11, 1, 0.037037037037, 2, 1, 0.148148148148, 
8, 1, 0.266666666667, 12, 1, 0.0740740740741
*EQUATION
2
453, 1, -1.0, 1010, 1, 1.0
*EQUATION
8
1010, 2, -1.0, 3, 2, 0.222222222222, 1, 2, 0.0740740740741, 
13, 2, 0.177777777778, 11, 2, 0.037037037037, 2, 2, 0.148148148148, 
8, 2, 0.266666666667, 12, 2, 0.0740740740741
*EQUATION
2
453, 2, -1.0, 1010, 2, 1.0
*EQUATION
8
1010, 3, -1.0, 3, 3, 0.222222222222, 1, 3, 0.0740740740741, 
13, 3, 0.177777777778, 11, 3, 0.037037037037, 2, 3, 0.148148148148, 
8, 3, 0.266666666667, 12, 3, 0.0740740740741
*EQUATION
2
453, 3, -1.0, 1010, 3, 1.0
*EQUATION
8
1029, 1, -1.0, 5, 1, 0.222222222222, 3, 1, 0.0740740740741, 
15, 1, 0.177777777778, 13, 1, 0.037037037037, 4, 1, 0.148148148148, 
10, 1, 0.266666666667, 14, 1, 0.0740740740741
*EQUATION
2
455, 1, -1.0, 1029, 1, 1.0
*EQUATION
8
1029, 2, -1.0, 5, 2, 0.222222222222, 3, 2, 0.0740740740741, 
15, 2, 0.177777777778, 13, 2, 0.037037037037, 4, 2, 0.148148148148, 
10, 2, 0.266666666667, 14, 2, 0.0740740740741
*EQUATION
2
455, 2, -1.0, 1029, 2, 1.0
*EQUATION
8
1029, 3, -1.0, 5, 3, 0.222222222222, 3, 3, 0.0740740740741, 
15, 3, 0.177777777778, 13, 3, 0.037037037037, 4, 3, 0.148148148148, 
10, 3, 0.266666666667, 14, 3, 0.0740740740741
*EQUATION
2
455, 3, -1.0, 1029, 3, 1.0
*EQUATION
8
1038, 1, -1.0, 11, 1, 0.222222222222, 13, 1, 0.0740740740741, 
1, 1, 0.177777777778, 3, 1, 0.037037037037, 12, 1, 0.148148148148, 
6, 1, 0.266666666667, 2, 1, 0.0740740740741
*EQUATION
2
496, 1, -1.0, 1038, 1, 1.0
*EQUATION
8
1038, 2, -1.0, 11, 2, 0.222222222222, 13, 2, 0.0740740740741, 
1, 2, 0.177777777778, 3, 2, 0.037037037037, 12, 2, 0.148148148148, 
6, 2, 0.266666666667, 2, 2, 0.0740740740741
*EQUATION
2
496, 2, -1.0, 1038, 2, 1.0
*EQUATION
8
1038, 3, -1.0, 11, 3, 0.222222222222, 13, 3, 0.0740740740741, 
1, 3, 0.177777777778, 3, 3, 0.037037037037, 12, 3, 0.148148148148, 
6, 3, 0.266666666667, 2, 3, 0.0740740740741
*EQUATION
2
496, 3, -1.0, 1038, 3, 1.0
*EQUATION
9
1004, 1, -1.0, 11, 1, 0.111111111111, 13, 1, 0.111111111111, 
1, 1, 0.0888888888889, 3, 1, 0.0888888888889, 12, 1, 0.222222222222, 
6, 1, 0.133333333333, 2, 1, 0.111111111111, 8, 1, 0.133333333333
*EQUATION
2
497, 1, -1.0, 1004, 1, 1.0
*EQUATION
9
1004, 2, -1.0, 11, 2, 0.111111111111, 13, 2, 0.111111111111, 
1, 2, 0.0888888888889, 3, 2, 0.0888888888889, 12, 2, 0.222222222222, 
6, 2, 0.133333333333, 2, 2, 0.111111111111, 8, 2, 0.133333333333
*EQUATION
2
497, 2, -1.0, 1004, 2, 1.0
*EQUATION
9
1004, 3, -1.0, 11, 3, 0.111111111111, 13, 3, 0.111111111111, 
1, 3, 0.0888888888889, 3, 3, 0.0888888888889, 12, 3, 0.222222222222, 
6, 3, 0.133333333333, 2, 3, 0.111111111111, 8, 3, 0.133333333333
*EQUATION
2
497, 3, -1.0, 1004, 3, 1.0
*EQUATION
8
995, 1, -1.0, 13, 1, 0.222222222222, 15, 1, 0.0740740740741, 
3, 1, 0.177777777778, 5, 1, 0.037037037037, 14, 1, 0.148148148148, 
8, 1, 0.266666666667, 4, 1, 0.0740740740741
*EQUATION
2
498, 1, -1.0, 995, 1, 1.0
*EQUATION
8
995, 2, -1.0, 13, 2, 0.222222222222, 15, 2, 0.0740740740741, 
3, 2, 0.177777777778, 5, 2, 0.037037037037, 14, 2, 0.148148148148, 
8, 2, 0.266666666667, 4, 2, 0.0740740740741
*EQUATION
2
498, 2, -1.0, 995, 2, 1.0
*EQUATION
8
995, 3, -1.0, 13, 3, 0.222222222222, 15, 3, 0.0740740740741, 
3, 3, 0.177777777778, 5, 3, 0.037037037037, 14, 3, 0.148148148148, 
8, 3, 0.266666666667, 4, 3, 0.0740740740741
*EQUATION
2
498, 3, -1.0, 995, 3, 1.0
*EQUATION
9
993, 1, -1.0, 15, 1, 0.111111111111, 13, 1, 0.111111111111, 
5, 1, 0.0888888888889, 3, 1, 0.0888888888889, 14, 1, 0.222222222222, 
10, 1, 0.133333333333, 4, 1, 0.111111111111, 8, 1, 0.133333333333
*EQUATION
2
499, 1, -1.0, 993, 1, 1.0
*EQUATION
9
993, 2, -1.0, 15, 2, 0.111111111111, 13, 2, 0.111111111111, 
5, 2, 0.0888888888889, 3, 2, 0.0888888888889, 14, 2, 0.222222222222, 
10, 2, 0.133333333333, 4, 2, 0.111111111111, 8, 2, 0.133333333333
*EQUATION
2
499, 2, -1.0, 993, 2, 1.0
*EQUATION
9
993, 3, -1.0, 15, 3, 0.111111111111, 13, 3, 0.111111111111, 
5, 3, 0.0888888888889, 3, 3, 0.0888888888889, 14, 3, 0.222222222222, 
10, 3, 0.133333333333, 4, 3, 0.111111111111, 8, 3, 0.133333333333
*EQUATION
2
499, 3, -1.0, 993, 3, 1.0
*EQUATION
8
1006, 1, -1.0, 15, 1, 0.222222222222, 13, 1, 0.0740740740741, 
5, 1, 0.177777777778, 3, 1, 0.037037037037, 14, 1, 0.148148148148, 
10, 1, 0.266666666667, 4, 1, 0.0740740740741
*EQUATION
2
500, 1, -1.0, 1006, 1, 1.0
*EQUATION
8
1006, 2, -1.0, 15, 2, 0.222222222222, 13, 2, 0.0740740740741, 
5, 2, 0.177777777778, 3, 2, 0.037037037037, 14, 2, 0.148148148148, 
10, 2, 0.266666666667, 4, 2, 0.0740740740741
*EQUATION
2
500, 2, -1.0, 1006, 2, 1.0
*EQUATION
8
1006, 3, -1.0, 15, 3, 0.222222222222, 13, 3, 0.0740740740741, 
5, 3, 0.177777777778, 3, 3, 0.037037037037, 14, 3, 0.148148148148, 
10, 3, 0.266666666667, 4, 3, 0.0740740740741
*EQUATION
2
500, 3, -1.0, 1006, 3, 1.0
*EQUATION
2
1026, 1, -1.0, 11, 1, 1.0
*EQUATION
2
541, 1, -1.0, 1026, 1, 1.0
*EQUATION
2
1026, 2, -1.0, 11, 2, 1.0
*EQUATION
2
541, 2, -1.0, 1026, 2, 1.0
*EQUATION
2
1026, 3, -1.0, 11, 3, 1.0
*EQUATION
2
541, 3, -1.0, 1026, 3, 1.0
*EQUATION
2
1023, 1, -1.0, 13, 1, 1.0
*EQUATION
2
543, 1, -1.0, 1023, 1, 1.0
*EQUATION
2
1023, 2, -1.0, 13, 2, 1.0
*EQUATION
2
543, 2, -1.0, 1023, 2, 1.0
*EQUATION
2
1023, 3, -1.0, 13, 3, 1.0
*EQUATION
2
543, 3, -1.0, 1023, 3, 1.0
*EQUATION
2
1020, 1, -1.0, 15, 1, 1.0
*EQUATION
2
545, 1, -1.0, 1020, 1, 1.0
*EQUATION
2
1020, 2, -1.0, 15, 2, 1.0
*EQUATION
2
545, 2, -1.0, 1020, 2, 1.0
*EQUATION
2
1020, 3, -1.0, 15, 3, 1.0
*EQUATION
2
545, 3, -1.0, 1020, 3, 1.0
*EQUATION
8
1028, 1, -1.0, 11, 1, 0.222222222222, 13, 1, 0.0740740740741, 
21, 1, 0.177777777778, 23, 1, 0.037037037037, 12, 1, 0.148148148148, 
16, 1, 0.266666666667, 22, 1, 0.0740740740741
*EQUATION
2
586, 1, -1.0, 1028, 1, 1.0
*EQUATION
8
1028, 2, -1.0, 11, 2, 0.222222222222, 13, 2, 0.0740740740741, 
21, 2, 0.177777777778, 23, 2, 0.037037037037, 12, 2, 0.148148148148, 
16, 2, 0.266666666667, 22, 2, 0.0740740740741
*EQUATION
2
586, 2, -1.0, 1028, 2, 1.0
*EQUATION
8
1028, 3, -1.0, 11, 3, 0.222222222222, 13, 3, 0.0740740740741, 
21, 3, 0.177777777778, 23, 3, 0.037037037037, 12, 3, 0.148148148148, 
16, 3, 0.266666666667, 22, 3, 0.0740740740741
*EQUATION
2
586, 3, -1.0, 1028, 3, 1.0
*EQUATION
9
1008, 1, -1.0, 11, 1, 0.111111111111, 13, 1, 0.111111111111, 
21, 1, 0.0888888888889, 23, 1, 0.0888888888889, 12, 1, 0.222222222222, 
16, 1, 0.133333333333, 22, 1, 0.111111111111, 18, 1, 0.133333333333
*EQUATION
2
587, 1, -1.0, 1008, 1, 1.0
*EQUATION
9
1008, 2, -1.0, 11, 2, 0.111111111111, 13, 2, 0.111111111111, 
21, 2, 0.0888888888889, 23, 2, 0.0888888888889, 12, 2, 0.222222222222, 
16, 2, 0.133333333333, 22, 2, 0.111111111111, 18, 2, 0.133333333333
*EQUATION
2
587, 2, -1.0, 1008, 2, 1.0
*EQUATION
9
1008, 3, -1.0, 11, 3, 0.111111111111, 13, 3, 0.111111111111, 
21, 3, 0.0888888888889, 23, 3, 0.0888888888889, 12, 3, 0.222222222222, 
16, 3, 0.133333333333, 22, 3, 0.111111111111, 18, 3, 0.133333333333
*EQUATION
2
587, 3, -1.0, 1008, 3, 1.0
*EQUATION
8
1000, 1, -1.0, 13, 1, 0.222222222222, 11, 1, 0.0740740740741, 
23, 1, 0.177777777778, 21, 1, 0.037037037037, 12, 1, 0.148148148148, 
18, 1, 0.266666666667, 22, 1, 0.0740740740741
*EQUATION
2
588, 1, -1.0, 1000, 1, 1.0
*EQUATION
8
1000, 2, -1.0, 13, 2, 0.222222222222, 11, 2, 0.0740740740741, 
23, 2, 0.177777777778, 21, 2, 0.037037037037, 12, 2, 0.148148148148, 
18, 2, 0.266666666667, 22, 2, 0.0740740740741
*EQUATION
2
588, 2, -1.0, 1000, 2, 1.0
*EQUATION
8
1000, 3, -1.0, 13, 3, 0.222222222222, 11, 3, 0.0740740740741, 
23, 3, 0.177777777778, 21, 3, 0.037037037037, 12, 3, 0.148148148148, 
18, 3, 0.266666666667, 22, 3, 0.0740740740741
*EQUATION
2
588, 3, -1.0, 1000, 3, 1.0
*EQUATION
9
998, 1, -1.0, 13, 1, 0.111111111111, 15, 1, 0.111111111111, 
23, 1, 0.0888888888889, 25, 1, 0.0888888888889, 14, 1, 0.222222222222, 
18, 1, 0.133333333333, 24, 1, 0.111111111111, 20, 1, 0.133333333333
*EQUATION
2
589, 1, -1.0, 998, 1, 1.0
*EQUATION
9
998, 2, -1.0, 13, 2, 0.111111111111, 15, 2, 0.111111111111, 
23, 2, 0.0888888888889, 25, 2, 0.0888888888889, 14, 2, 0.222222222222, 
18, 2, 0.133333333333, 24, 2, 0.111111111111, 20, 2, 0.133333333333
*EQUATION
2
589, 2, -1.0, 998, 2, 1.0
*EQUATION
9
998, 3, -1.0, 13, 3, 0.111111111111, 15, 3, 0.111111111111, 
23, 3, 0.0888888888889, 25, 3, 0.0888888888889, 14, 3, 0.222222222222, 
18, 3, 0.133333333333, 24, 3, 0.111111111111, 20, 3, 0.133333333333
*EQUATION
2
589, 3, -1.0, 998, 3, 1.0
*EQUATION
8
997, 1, -1.0, 15, 1, 0.222222222222, 13, 1, 0.0740740740741, 
25, 1, 0.177777777778, 23, 1, 0.037037037037, 14, 1, 0.148148148148, 
20, 1, 0.266666666667, 24, 1, 0.0740740740741
*EQUATION
2
590, 1, -1.0, 997, 1, 1.0
*EQUATION
8
997, 2, -1.0, 15, 2, 0.222222222222, 13, 2, 0.0740740740741, 
25, 2, 0.177777777778, 23, 2, 0.037037037037, 14, 2, 0.148148148148, 
20, 2, 0.266666666667, 24, 2, 0.0740740740741
*EQUATION
2
590, 2, -1.0, 997, 2, 1.0
*EQUATION
8
997, 3, -1.0, 15, 3, 0.222222222222, 13, 3, 0.0740740740741, 
25, 3, 0.177777777778, 23, 3, 0.037037037037, 14, 3, 0.148148148148, 
20, 3, 0.266666666667, 24, 3, 0.0740740740741
*EQUATION
2
590, 3, -1.0, 997, 3, 1.0
*EQUATION
8
1031, 1, -1.0, 21, 1, 0.222222222222, 23, 1, 0.0740740740741, 
11, 1, 0.177777777778, 13, 1, 0.037037037037, 22, 1, 0.148148148148, 
16, 1, 0.266666666667, 12, 1, 0.0740740740741
*EQUATION
2
631, 1, -1.0, 1031, 1, 1.0
*EQUATION
8
1031, 2, -1.0, 21, 2, 0.222222222222, 23, 2, 0.0740740740741, 
11, 2, 0.177777777778, 13, 2, 0.037037037037, 22, 2, 0.148148148148, 
16, 2, 0.266666666667, 12, 2, 0.0740740740741
*EQUATION
2
631, 2, -1.0, 1031, 2, 1.0
*EQUATION
8
1031, 3, -1.0, 21, 3, 0.222222222222, 23, 3, 0.0740740740741, 
11, 3, 0.177777777778, 13, 3, 0.037037037037, 22, 3, 0.148148148148, 
16, 3, 0.266666666667, 12, 3, 0.0740740740741
*EQUATION
2
631, 3, -1.0, 1031, 3, 1.0
*EQUATION
8
1025, 1, -1.0, 23, 1, 0.222222222222, 25, 1, 0.0740740740741, 
13, 1, 0.177777777778, 15, 1, 0.037037037037, 24, 1, 0.148148148148, 
18, 1, 0.266666666667, 14, 1, 0.0740740740741
*EQUATION
2
633, 1, -1.0, 1025, 1, 1.0
*EQUATION
8
1025, 2, -1.0, 23, 2, 0.222222222222, 25, 2, 0.0740740740741, 
13, 2, 0.177777777778, 15, 2, 0.037037037037, 24, 2, 0.148148148148, 
18, 2, 0.266666666667, 14, 2, 0.0740740740741
*EQUATION
2
633, 2, -1.0, 1025, 2, 1.0
*EQUATION
8
1025, 3, -1.0, 23, 3, 0.222222222222, 25, 3, 0.0740740740741, 
13, 3, 0.177777777778, 15, 3, 0.037037037037, 24, 3, 0.148148148148, 
18, 3, 0.266666666667, 14, 3, 0.0740740740741
*EQUATION
2
633, 3, -1.0, 1025, 3, 1.0
*EQUATION
8
1024, 1, -1.0, 25, 1, 0.222222222222, 23, 1, 0.0740740740741, 
15, 1, 0.177777777778, 13, 1, 0.037037037037, 24, 1, 0.148148148148, 
20, 1, 0.266666666667, 14, 1, 0.0740740740741
*EQUATION
2
635, 1, -1.0, 1024, 1, 1.0
*EQUATION
8
1024, 2, -1.0, 25, 2, 0.222222222222, 23, 2, 0.0740740740741, 
15, 2, 0.177777777778, 13, 2, 0.037037037037, 24, 2, 0.148148148148, 
20, 2, 0.266666666667, 14, 2, 0.0740740740741
*EQUATION
2
635, 2, -1.0, 1024, 2, 1.0
*EQUATION
8
1024, 3, -1.0, 25, 3, 0.222222222222, 23, 3, 0.0740740740741, 
15, 3, 0.177777777778, 13, 3, 0.037037037037, 24, 3, 0.148148148148, 
20, 3, 0.266666666667, 14, 3, 0.0740740740741
*EQUATION
2
635, 3, -1.0, 1024, 3, 1.0
*EQUATION
2
1007, 1, -1.0, 21, 1, 1.0
*EQUATION
2
676, 1, -1.0, 1007, 1, 1.0
*EQUATION
2
1007, 2, -1.0, 21, 2, 1.0
*EQUATION
2
676, 2, -1.0, 1007, 2, 1.0
*EQUATION
2
1007, 3, -1.0, 21, 3, 1.0
*EQUATION
2
676, 3, -1.0, 1007, 3, 1.0
*EQUATION
8
1013, 1, -1.0, 21, 1, 0.166666666667, 23, 1, 0.166666666667, 
31, 1, 0.0555555555556, 33, 1, 0.0555555555556, 22, 1, 0.333333333333, 
26, 1, 0.111111111111, 28, 1, 0.111111111111
*EQUATION
2
677, 1, -1.0, 1013, 1, 1.0
*EQUATION
8
1013, 2, -1.0, 21, 2, 0.166666666667, 23, 2, 0.166666666667, 
31, 2, 0.0555555555556, 33, 2, 0.0555555555556, 22, 2, 0.333333333333, 
26, 2, 0.111111111111, 28, 2, 0.111111111111
*EQUATION
2
677, 2, -1.0, 1013, 2, 1.0
*EQUATION
8
1013, 3, -1.0, 21, 3, 0.166666666667, 23, 3, 0.166666666667, 
31, 3, 0.0555555555556, 33, 3, 0.0555555555556, 22, 3, 0.333333333333, 
26, 3, 0.111111111111, 28, 3, 0.111111111111
*EQUATION
2
677, 3, -1.0, 1013, 3, 1.0
*EQUATION
2
1030, 1, -1.0, 23, 1, 1.0
*EQUATION
2
678, 1, -1.0, 1030, 1, 1.0
*EQUATION
2
1030, 2, -1.0, 23, 2, 1.0
*EQUATION
2
678, 2, -1.0, 1030, 2, 1.0
*EQUATION
2
1030, 3, -1.0, 23, 3, 1.0
*EQUATION
2
678, 3, -1.0, 1030, 3, 1.0
*EQUATION
8
1002, 1, -1.0, 25, 1, 0.166666666667, 23, 1, 0.166666666667, 
15, 1, 0.0555555555556, 13, 1, 0.0555555555556, 24, 1, 0.333333333333, 
20, 1, 0.111111111111, 18, 1, 0.111111111111
*EQUATION
2
679, 1, -1.0, 1002, 1, 1.0
*EQUATION
8
1002, 2, -1.0, 25, 2, 0.166666666667, 23, 2, 0.166666666667, 
15, 2, 0.0555555555556, 13, 2, 0.0555555555556, 24, 2, 0.333333333333, 
20, 2, 0.111111111111, 18, 2, 0.111111111111
*EQUATION
2
679, 2, -1.0, 1002, 2, 1.0
*EQUATION
8
1002, 3, -1.0, 25, 3, 0.166666666667, 23, 3, 0.166666666667, 
15, 3, 0.0555555555556, 13, 3, 0.0555555555556, 24, 3, 0.333333333333, 
20, 3, 0.111111111111, 18, 3, 0.111111111111
*EQUATION
2
679, 3, -1.0, 1002, 3, 1.0
*EQUATION
2
999, 1, -1.0, 25, 1, 1.0
*EQUATION
2
680, 1, -1.0, 999, 1, 1.0
*EQUATION
2
999, 2, -1.0, 25, 2, 1.0
*EQUATION
2
680, 2, -1.0, 999, 2, 1.0
*EQUATION
2
999, 3, -1.0, 25, 3, 1.0
*EQUATION
2
680, 3, -1.0, 999, 3, 1.0
*EQUATION
8
1043, 1, -1.0, 21, 1, 0.222222222222, 23, 1, 0.0740740740741, 
31, 1, 0.177777777778, 33, 1, 0.037037037037, 22, 1, 0.148148148148, 
26, 1, 0.266666666667, 32, 1, 0.0740740740741
*EQUATION
2
721, 1, -1.0, 1043, 1, 1.0
*EQUATION
8
1043, 2, -1.0, 21, 2, 0.222222222222, 23, 2, 0.0740740740741, 
31, 2, 0.177777777778, 33, 2, 0.037037037037, 22, 2, 0.148148148148, 
26, 2, 0.266666666667, 32, 2, 0.0740740740741
*EQUATION
2
721, 2, -1.0, 1043, 2, 1.0
*EQUATION
8
1043, 3, -1.0, 21, 3, 0.222222222222, 23, 3, 0.0740740740741, 
31, 3, 0.177777777778, 33, 3, 0.037037037037, 22, 3, 0.148148148148, 
26, 3, 0.266666666667, 32, 3, 0.0740740740741
*EQUATION
2
721, 3, -1.0, 1043, 3, 1.0
*EQUATION
8
1040, 1, -1.0, 23, 1, 0.222222222222, 25, 1, 0.0740740740741, 
33, 1, 0.177777777778, 35, 1, 0.037037037037, 24, 1, 0.148148148148, 
28, 1, 0.266666666667, 34, 1, 0.0740740740741
*EQUATION
2
723, 1, -1.0, 1040, 1, 1.0
*EQUATION
8
1040, 2, -1.0, 23, 2, 0.222222222222, 25, 2, 0.0740740740741, 
33, 2, 0.177777777778, 35, 2, 0.037037037037, 24, 2, 0.148148148148, 
28, 2, 0.266666666667, 34, 2, 0.0740740740741
*EQUATION
2
723, 2, -1.0, 1040, 2, 1.0
*EQUATION
8
1040, 3, -1.0, 23, 3, 0.222222222222, 25, 3, 0.0740740740741, 
33, 3, 0.177777777778, 35, 3, 0.037037037037, 24, 3, 0.148148148148, 
28, 3, 0.266666666667, 34, 3, 0.0740740740741
*EQUATION
2
723, 3, -1.0, 1040, 3, 1.0
*EQUATION
8
1033, 1, -1.0, 25, 1, 0.222222222222, 23, 1, 0.0740740740741, 
35, 1, 0.177777777778, 33, 1, 0.037037037037, 24, 1, 0.148148148148, 
30, 1, 0.266666666667, 34, 1, 0.0740740740741
*EQUATION
2
725, 1, -1.0, 1033, 1, 1.0
*EQUATION
8
1033, 2, -1.0, 25, 2, 0.222222222222, 23, 2, 0.0740740740741, 
35, 2, 0.177777777778, 33, 2, 0.037037037037, 24, 2, 0.148148148148, 
30, 2, 0.266666666667, 34, 2, 0.0740740740741
*EQUATION
2
725, 2, -1.0, 1033, 2, 1.0
*EQUATION
8
1033, 3, -1.0, 25, 3, 0.222222222222, 23, 3, 0.0740740740741, 
35, 3, 0.177777777778, 33, 3, 0.037037037037, 24, 3, 0.148148148148, 
30, 3, 0.266666666667, 34, 3, 0.0740740740741
*EQUATION
2
725, 3, -1.0, 1033, 3, 1.0
*EQUATION
8
1016, 1, -1.0, 31, 1, 0.222222222222, 33, 1, 0.0740740740741, 
21, 1, 0.177777777778, 23, 1, 0.037037037037, 32, 1, 0.148148148148, 
26, 1, 0.266666666667, 22, 1, 0.0740740740741
*EQUATION
2
766, 1, -1.0, 1016, 1, 1.0
*EQUATION
8
1016, 2, -1.0, 31, 2, 0.222222222222, 33, 2, 0.0740740740741, 
21, 2, 0.177777777778, 23, 2, 0.037037037037, 32, 2, 0.148148148148, 
26, 2, 0.266666666667, 22, 2, 0.0740740740741
*EQUATION
2
766, 2, -1.0, 1016, 2, 1.0
*EQUATION
8
1016, 3, -1.0, 31, 3, 0.222222222222, 33, 3, 0.0740740740741, 
21, 3, 0.177777777778, 23, 3, 0.037037037037, 32, 3, 0.148148148148, 
26, 3, 0.266666666667, 22, 3, 0.0740740740741
*EQUATION
2
766, 3, -1.0, 1016, 3, 1.0
*EQUATION
9
991, 1, -1.0, 33, 1, 0.111111111111, 31, 1, 0.111111111111, 
23, 1, 0.0888888888889, 21, 1, 0.0888888888889, 32, 1, 0.222222222222, 
28, 1, 0.133333333333, 22, 1, 0.111111111111, 26, 1, 0.133333333333
*EQUATION
2
767, 1, -1.0, 991, 1, 1.0
*EQUATION
9
991, 2, -1.0, 33, 2, 0.111111111111, 31, 2, 0.111111111111, 
23, 2, 0.0888888888889, 21, 2, 0.0888888888889, 32, 2, 0.222222222222, 
28, 2, 0.133333333333, 22, 2, 0.111111111111, 26, 2, 0.133333333333
*EQUATION
2
767, 2, -1.0, 991, 2, 1.0
*EQUATION
9
991, 3, -1.0, 33, 3, 0.111111111111, 31, 3, 0.111111111111, 
23, 3, 0.0888888888889, 21, 3, 0.0888888888889, 32, 3, 0.222222222222, 
28, 3, 0.133333333333, 22, 3, 0.111111111111, 26, 3, 0.133333333333
*EQUATION
2
767, 3, -1.0, 991, 3, 1.0
*EQUATION
8
1001, 1, -1.0, 33, 1, 0.222222222222, 31, 1, 0.0740740740741, 
23, 1, 0.177777777778, 21, 1, 0.037037037037, 32, 1, 0.148148148148, 
28, 1, 0.266666666667, 22, 1, 0.0740740740741
*EQUATION
2
768, 1, -1.0, 1001, 1, 1.0
*EQUATION
8
1001, 2, -1.0, 33, 2, 0.222222222222, 31, 2, 0.0740740740741, 
23, 2, 0.177777777778, 21, 2, 0.037037037037, 32, 2, 0.148148148148, 
28, 2, 0.266666666667, 22, 2, 0.0740740740741
*EQUATION
2
768, 2, -1.0, 1001, 2, 1.0
*EQUATION
8
1001, 3, -1.0, 33, 3, 0.222222222222, 31, 3, 0.0740740740741, 
23, 3, 0.177777777778, 21, 3, 0.037037037037, 32, 3, 0.148148148148, 
28, 3, 0.266666666667, 22, 3, 0.0740740740741
*EQUATION
2
768, 3, -1.0, 1001, 3, 1.0
*EQUATION
9
1003, 1, -1.0, 33, 1, 0.111111111111, 35, 1, 0.111111111111, 
23, 1, 0.0888888888889, 25, 1, 0.0888888888889, 34, 1, 0.222222222222, 
28, 1, 0.133333333333, 24, 1, 0.111111111111, 30, 1, 0.133333333333
*EQUATION
2
769, 1, -1.0, 1003, 1, 1.0
*EQUATION
9
1003, 2, -1.0, 33, 2, 0.111111111111, 35, 2, 0.111111111111, 
23, 2, 0.0888888888889, 25, 2, 0.0888888888889, 34, 2, 0.222222222222, 
28, 2, 0.133333333333, 24, 2, 0.111111111111, 30, 2, 0.133333333333
*EQUATION
2
769, 2, -1.0, 1003, 2, 1.0
*EQUATION
9
1003, 3, -1.0, 33, 3, 0.111111111111, 35, 3, 0.111111111111, 
23, 3, 0.0888888888889, 25, 3, 0.0888888888889, 34, 3, 0.222222222222, 
28, 3, 0.133333333333, 24, 3, 0.111111111111, 30, 3, 0.133333333333
*EQUATION
2
769, 3, -1.0, 1003, 3, 1.0
*EQUATION
8
1005, 1, -1.0, 35, 1, 0.222222222222, 33, 1, 0.0740740740741, 
25, 1, 0.177777777778, 23, 1, 0.037037037037, 34, 1, 0.148148148148, 
30, 1, 0.266666666667, 24, 1, 0.0740740740741
*EQUATION
2
770, 1, -1.0, 1005, 1, 1.0
*EQUATION
8
1005, 2, -1.0, 35, 2, 0.222222222222, 33, 2, 0.0740740740741, 
25, 2, 0.177777777778, 23, 2, 0.037037037037, 34, 2, 0.148148148148, 
30, 2, 0.266666666667, 24, 2, 0.0740740740741
*EQUATION
2
770, 2, -1.0, 1005, 2, 1.0
*EQUATION
8
1005, 3, -1.0, 35, 3, 0.222222222222, 33, 3, 0.0740740740741, 
25, 3, 0.177777777778, 23, 3, 0.037037037037, 34, 3, 0.148148148148, 
30, 3, 0.266666666667, 24, 3, 0.0740740740741
*EQUATION
2
770, 3, -1.0, 1005, 3, 1.0
*EQUATION
2
1021, 1, -1.0, 31, 1, 1.0
*EQUATION
2
811, 1, -1.0, 1021, 1, 1.0
*EQUATION
2
1021, 2, -1.0, 31, 2, 1.0
*EQUATION
2
811, 2, -1.0, 1021, 2, 1.0
*EQUATION
2
1021, 3, -1.0, 31, 3, 1.0
*EQUATION
2
811, 3, -1.0, 1021, 3, 1.0
*EQUATION
2
1022, 1, -1.0, 33, 1, 1.0
*EQUATION
2
813, 1, -1.0, 1022, 1, 1.0
*EQUATION
2
1022, 2, -1.0, 33, 2, 1.0
*EQUATION
2
813, 2, -1.0, 1022, 2, 1.0
*EQUATION
2
1022, 3, -1.0, 33, 3, 1.0
*EQUATION
2
813, 3, -1.0, 1022, 3, 1.0
*EQUATION
2
1035, 1, -1.0, 35, 1, 1.0
*EQUATION
2
815, 1, -1.0, 1035, 1, 1.0
*EQUATION
2
1035, 2, -1.0, 35, 2, 1.0
*EQUATION
2
815, 2, -1.0, 1035, 2, 1.0
*EQUATION
2
1035, 3, -1.0, 35, 3, 1.0
*EQUATION
2
815, 3, -1.0, 1035, 3, 1.0
*EQUATION
8
1042, 1, -1.0, 31, 1, 0.222222222222, 33, 1, 0.0740740740741, 
41, 1, 0.177777777778, 43, 1, 0.037037037037, 32, 1, 0.148148148148, 
36, 1, 0.266666666667, 42, 1, 0.0740740740741
*EQUATION
2
856, 1, -1.0, 1042, 1, 1.0
*EQUATION
8
1042, 2, -1.0, 31, 2, 0.222222222222, 33, 2, 0.0740740740741, 
41, 2, 0.177777777778, 43, 2, 0.037037037037, 32, 2, 0.148148148148, 
36, 2, 0.266666666667, 42, 2, 0.0740740740741
*EQUATION
2
856, 2, -1.0, 1042, 2, 1.0
*EQUATION
8
1042, 3, -1.0, 31, 3, 0.222222222222, 33, 3, 0.0740740740741, 
41, 3, 0.177777777778, 43, 3, 0.037037037037, 32, 3, 0.148148148148, 
36, 3, 0.266666666667, 42, 3, 0.0740740740741
*EQUATION
2
856, 3, -1.0, 1042, 3, 1.0
*EQUATION
9
1036, 1, -1.0, 33, 1, 0.111111111111, 31, 1, 0.111111111111, 
43, 1, 0.0888888888889, 41, 1, 0.0888888888889, 32, 1, 0.222222222222, 
38, 1, 0.133333333333, 42, 1, 0.111111111111, 36, 1, 0.133333333333
*EQUATION
2
857, 1, -1.0, 1036, 1, 1.0
*EQUATION
9
1036, 2, -1.0, 33, 2, 0.111111111111, 31, 2, 0.111111111111, 
43, 2, 0.0888888888889, 41, 2, 0.0888888888889, 32, 2, 0.222222222222, 
38, 2, 0.133333333333, 42, 2, 0.111111111111, 36, 2, 0.133333333333
*EQUATION
2
857, 2, -1.0, 1036, 2, 1.0
*EQUATION
9
1036, 3, -1.0, 33, 3, 0.111111111111, 31, 3, 0.111111111111, 
43, 3, 0.0888888888889, 41, 3, 0.0888888888889, 32, 3, 0.222222222222, 
38, 3, 0.133333333333, 42, 3, 0.111111111111, 36, 3, 0.133333333333
*EQUATION
2
857, 3, -1.0, 1036, 3, 1.0
*EQUATION
8
992, 1, -1.0, 33, 1, 0.222222222222, 31, 1, 0.0740740740741, 
43, 1, 0.177777777778, 41, 1, 0.037037037037, 32, 1, 0.148148148148, 
38, 1, 0.266666666667, 42, 1, 0.0740740740741
*EQUATION
2
858, 1, -1.0, 992, 1, 1.0
*EQUATION
8
992, 2, -1.0, 33, 2, 0.222222222222, 31, 2, 0.0740740740741, 
43, 2, 0.177777777778, 41, 2, 0.037037037037, 32, 2, 0.148148148148, 
38, 2, 0.266666666667, 42, 2, 0.0740740740741
*EQUATION
2
858, 2, -1.0, 992, 2, 1.0
*EQUATION
8
992, 3, -1.0, 33, 3, 0.222222222222, 31, 3, 0.0740740740741, 
43, 3, 0.177777777778, 41, 3, 0.037037037037, 32, 3, 0.148148148148, 
38, 3, 0.266666666667, 42, 3, 0.0740740740741
*EQUATION
2
858, 3, -1.0, 992, 3, 1.0
*EQUATION
9
994, 1, -1.0, 33, 1, 0.111111111111, 35, 1, 0.111111111111, 
43, 1, 0.0888888888889, 45, 1, 0.0888888888889, 34, 1, 0.222222222222, 
38, 1, 0.133333333333, 44, 1, 0.111111111111, 40, 1, 0.133333333333
*EQUATION
2
859, 1, -1.0, 994, 1, 1.0
*EQUATION
9
994, 2, -1.0, 33, 2, 0.111111111111, 35, 2, 0.111111111111, 
43, 2, 0.0888888888889, 45, 2, 0.0888888888889, 34, 2, 0.222222222222, 
38, 2, 0.133333333333, 44, 2, 0.111111111111, 40, 2, 0.133333333333
*EQUATION
2
859, 2, -1.0, 994, 2, 1.0
*EQUATION
9
994, 3, -1.0, 33, 3, 0.111111111111, 35, 3, 0.111111111111, 
43, 3, 0.0888888888889, 45, 3, 0.0888888888889, 34, 3, 0.222222222222, 
38, 3, 0.133333333333, 44, 3, 0.111111111111, 40, 3, 0.133333333333
*EQUATION
2
859, 3, -1.0, 994, 3, 1.0
*EQUATION
8
996, 1, -1.0, 35, 1, 0.222222222222, 33, 1, 0.0740740740741, 
45, 1, 0.177777777778, 43, 1, 0.037037037037, 34, 1, 0.148148148148, 
40, 1, 0.266666666667, 44, 1, 0.0740740740741
*EQUATION
2
860, 1, -1.0, 996, 1, 1.0
*EQUATION
8
996, 2, -1.0, 35, 2, 0.222222222222, 33, 2, 0.0740740740741, 
45, 2, 0.177777777778, 43, 2, 0.037037037037, 34, 2, 0.148148148148, 
40, 2, 0.266666666667, 44, 2, 0.0740740740741
*EQUATION
2
860, 2, -1.0, 996, 2, 1.0
*EQUATION
8
996, 3, -1.0, 35, 3, 0.222222222222, 33, 3, 0.0740740740741, 
45, 3, 0.177777777778, 43, 3, 0.037037037037, 34, 3, 0.148148148148, 
40, 3, 0.266666666667, 44, 3, 0.0740740740741
*EQUATION
2
860, 3, -1.0, 996, 3, 1.0
*EQUATION
8
1011, 1, -1.0, 41, 1, 0.222222222222, 43, 1, 0.0740740740741, 
31, 1, 0.177777777778, 33, 1, 0.037037037037, 42, 1, 0.148148148148, 
36, 1, 0.266666666667, 32, 1, 0.0740740740741
*EQUATION
2
901, 1, -1.0, 1011, 1, 1.0
*EQUATION
8
1011, 2, -1.0, 41, 2, 0.222222222222, 43, 2, 0.0740740740741, 
31, 2, 0.177777777778, 33, 2, 0.037037037037, 42, 2, 0.148148148148, 
36, 2, 0.266666666667, 32, 2, 0.0740740740741
*EQUATION
2
901, 2, -1.0, 1011, 2, 1.0
*EQUATION
8
1011, 3, -1.0, 41, 3, 0.222222222222, 43, 3, 0.0740740740741, 
31, 3, 0.177777777778, 33, 3, 0.037037037037, 42, 3, 0.148148148148, 
36, 3, 0.266666666667, 32, 3, 0.0740740740741
*EQUATION
2
901, 3, -1.0, 1011, 3, 1.0
*EQUATION
8
1015, 1, -1.0, 43, 1, 0.222222222222, 41, 1, 0.0740740740741, 
33, 1, 0.177777777778, 31, 1, 0.037037037037, 42, 1, 0.148148148148, 
38, 1, 0.266666666667, 32, 1, 0.0740740740741
*EQUATION
2
903, 1, -1.0, 1015, 1, 1.0
*EQUATION
8
1015, 2, -1.0, 43, 2, 0.222222222222, 41, 2, 0.0740740740741, 
33, 2, 0.177777777778, 31, 2, 0.037037037037, 42, 2, 0.148148148148, 
38, 2, 0.266666666667, 32, 2, 0.0740740740741
*EQUATION
2
903, 2, -1.0, 1015, 2, 1.0
*EQUATION
8
1015, 3, -1.0, 43, 3, 0.222222222222, 41, 3, 0.0740740740741, 
33, 3, 0.177777777778, 31, 3, 0.037037037037, 42, 3, 0.148148148148, 
38, 3, 0.266666666667, 32, 3, 0.0740740740741
*EQUATION
2
903, 3, -1.0, 1015, 3, 1.0
*EQUATION
8
1019, 1, -1.0, 45, 1, 0.222222222222, 43, 1, 0.0740740740741, 
35, 1, 0.177777777778, 33, 1, 0.037037037037, 44, 1, 0.148148148148, 
40, 1, 0.266666666667, 34, 1, 0.0740740740741
*EQUATION
2
905, 1, -1.0, 1019, 1, 1.0
*EQUATION
8
1019, 2, -1.0, 45, 2, 0.222222222222, 43, 2, 0.0740740740741, 
35, 2, 0.177777777778, 33, 2, 0.037037037037, 44, 2, 0.148148148148, 
40, 2, 0.266666666667, 34, 2, 0.0740740740741
*EQUATION
2
905, 2, -1.0, 1019, 2, 1.0
*EQUATION
8
1019, 3, -1.0, 45, 3, 0.222222222222, 43, 3, 0.0740740740741, 
35, 3, 0.177777777778, 33, 3, 0.037037037037, 44, 3, 0.148148148148, 
40, 3, 0.266666666667, 34, 3, 0.0740740740741
*EQUATION
2
905, 3, -1.0, 1019, 3, 1.0
*EQUATION
2
1032, 1, -1.0, 41, 1, 1.0
*EQUATION
2
946, 1, -1.0, 1032, 1, 1.0
*EQUATION
2
1032, 2, -1.0, 41, 2, 1.0
*EQUATION
2
946, 2, -1.0, 1032, 2, 1.0
*EQUATION
2
1032, 3, -1.0, 41, 3, 1.0
*EQUATION
2
946, 3, -1.0, 1032, 3, 1.0
*EQUATION
8
1018, 1, -1.0, 41, 1, 0.166666666667, 43, 1, 0.166666666667, 
31, 1, 0.0555555555556, 33, 1, 0.0555555555556, 42, 1, 0.333333333333, 
36, 1, 0.111111111111, 38, 1, 0.111111111111
*EQUATION
2
947, 1, -1.0, 1018, 1, 1.0
*EQUATION
8
1018, 2, -1.0, 41, 2, 0.166666666667, 43, 2, 0.166666666667, 
31, 2, 0.0555555555556, 33, 2, 0.0555555555556, 42, 2, 0.333333333333, 
36, 2, 0.111111111111, 38, 2, 0.111111111111
*EQUATION
2
947, 2, -1.0, 1018, 2, 1.0
*EQUATION
8
1018, 3, -1.0, 41, 3, 0.166666666667, 43, 3, 0.166666666667, 
31, 3, 0.0555555555556, 33, 3, 0.0555555555556, 42, 3, 0.333333333333, 
36, 3, 0.111111111111, 38, 3, 0.111111111111
*EQUATION
2
947, 3, -1.0, 1018, 3, 1.0
*EQUATION
2
1037, 1, -1.0, 43, 1, 1.0
*EQUATION
2
948, 1, -1.0, 1037, 1, 1.0
*EQUATION
2
1037, 2, -1.0, 43, 2, 1.0
*EQUATION
2
948, 2, -1.0, 1037, 2, 1.0
*EQUATION
2
1037, 3, -1.0, 43, 3, 1.0
*EQUATION
2
948, 3, -1.0, 1037, 3, 1.0
*EQUATION
8
1039, 1, -1.0, 43, 1, 0.166666666667, 45, 1, 0.166666666667, 
33, 1, 0.0555555555556, 35, 1, 0.0555555555556, 44, 1, 0.333333333333, 
38, 1, 0.111111111111, 40, 1, 0.111111111111
*EQUATION
2
949, 1, -1.0, 1039, 1, 1.0
*EQUATION
8
1039, 2, -1.0, 43, 2, 0.166666666667, 45, 2, 0.166666666667, 
33, 2, 0.0555555555556, 35, 2, 0.0555555555556, 44, 2, 0.333333333333, 
38, 2, 0.111111111111, 40, 2, 0.111111111111
*EQUATION
2
949, 2, -1.0, 1039, 2, 1.0
*EQUATION
8
1039, 3, -1.0, 43, 3, 0.166666666667, 45, 3, 0.166666666667, 
33, 3, 0.0555555555556, 35, 3, 0.0555555555556, 44, 3, 0.333333333333, 
38, 3, 0.111111111111, 40, 3, 0.111111111111
*EQUATION
2
949, 3, -1.0, 1039, 3, 1.0
*EQUATION
2
1041, 1, -1.0, 45, 1, 1.0
*EQUATION
2
950, 1, -1.0, 1041, 1, 1.0
*EQUATION
2
1041, 2, -1.0, 45, 2, 1.0
*EQUATION
2
950, 2, -1.0, 1041, 2, 1.0
*EQUATION
2
1041, 3, -1.0, 45, 3, 1.0
*EQUATION
2
950, 3, -1.0, 1041, 3, 1.0
** <BEGIN> ~-~~-~~-~~-~~-~~-~~-~~-~~-~~-~~-~~-~~-~~-~~-~ EA_MESH ELEMENTS
*ELEMENT, TYPE=C3D20R, ELSET=E1
1, 1, 91, 101, 11, 3, 93, 103, 13, 46, 96, 56, 6, 
48, 98, 58, 8, 2, 92, 102, 12
*ELEMENT, TYPE=C3D20R, ELSET=E2
2, 3, 93, 103, 13, 5, 95, 105, 15, 48, 98, 58, 8, 
50, 100, 60, 10, 4, 94, 104, 14
*ELEMENT, TYPE=C3D20R, ELSET=E3
3, 11, 101, 111, 21, 13, 103, 113, 23, 56, 106, 66, 16, 
58, 108, 68, 18, 12, 102, 112, 22
*ELEMENT, TYPE=C3D20R, ELSET=E4
4, 13, 103, 113, 23, 15, 105, 115, 25, 58, 108, 68, 18, 
60, 110, 70, 20, 14, 104, 114, 24
*ELEMENT, TYPE=C3D20R, ELSET=E5
5, 21, 111, 121, 31, 23, 113, 123, 33, 66, 116, 76, 26, 
68, 118, 78, 28, 22, 112, 122, 32
*ELEMENT, TYPE=C3D20R, ELSET=E6
6, 23, 113, 123, 33, 25, 115, 125, 35, 68, 118, 78, 28, 
70, 120, 80, 30, 24, 114, 124, 34
*ELEMENT, TYPE=C3D20R, ELSET=E7
7, 31, 121, 131, 41, 33, 123, 133, 43, 76, 126, 86, 36, 
78, 128, 88, 38, 32, 122, 132, 42
*ELEMENT, TYPE=C3D20R, ELSET=E8
8, 33, 123, 133, 43, 35, 125, 135, 45, 78, 128, 88, 38, 
80, 130, 90, 40, 34, 124, 134, 44
*ELEMENT, TYPE=C3D20R, ELSET=E9
9, 91, 181, 191, 101, 93, 183, 193, 103, 136, 186, 146, 96, 
138, 188, 148, 98, 92, 182, 192, 102
*ELEMENT, TYPE=C3D20R, ELSET=E10
10, 93, 183, 193, 103, 95, 185, 195, 105, 138, 188, 148, 98, 
140, 190, 150, 100, 94, 184, 194, 104
*ELEMENT, TYPE=C3D20R, ELSET=E11
11, 101, 191, 201, 111, 103, 193, 203, 113, 146, 196, 156, 106, 
148, 198, 158, 108, 102, 192, 202, 112
*ELEMENT, TYPE=C3D20R, ELSET=E12
12, 103, 193, 203, 113, 105, 195, 205, 115, 148, 198, 158, 108, 
150, 200, 160, 110, 104, 194, 204, 114
*ELEMENT, TYPE=C3D20R, ELSET=E13
13, 111, 201, 211, 121, 113, 203, 213, 123, 156, 206, 166, 116, 
158, 208, 168, 118, 112, 202, 212, 122
*ELEMENT, TYPE=C3D20R, ELSET=E14
14, 113, 203, 213, 123, 115, 205, 215, 125, 158, 208, 168, 118, 
160, 210, 170, 120, 114, 204, 214, 124
*ELEMENT, TYPE=C3D20R, ELSET=E15
15, 121, 211, 221, 131, 123, 213, 223, 133, 166, 216, 176, 126, 
168, 218, 178, 128, 122, 212, 222, 132
*ELEMENT, TYPE=C3D20R, ELSET=E16
16, 123, 213, 223, 133, 125, 215, 225, 135, 168, 218, 178, 128, 
170, 220, 180, 130, 124, 214, 224, 134
*ELEMENT, TYPE=C3D20R, ELSET=E17
17, 181, 271, 281, 191, 183, 273, 283, 193, 226, 276, 236, 186, 
228, 278, 238, 188, 182, 272, 282, 192
*ELEMENT, TYPE=C3D20R, ELSET=E18
18, 183, 273, 283, 193, 185, 275, 285, 195, 228, 278, 238, 188, 
230, 280, 240, 190, 184, 274, 284, 194
*ELEMENT, TYPE=C3D20R, ELSET=E19
19, 191, 281, 291, 201, 193, 283, 293, 203, 236, 286, 246, 196, 
238, 288, 248, 198, 192, 282, 292, 202
*ELEMENT, TYPE=C3D20R, ELSET=E20
20, 193, 283, 293, 203, 195, 285, 295, 205, 238, 288, 248, 198, 
240, 290, 250, 200, 194, 284, 294, 204
** ... 36 like lines cut
** <END> ~-~~-~~-~~-~~-~~-~~-~~-~~-~~-~~-~~-~~-~~-~~-~ EA_MESH ELEMENTS
** <BEGIN> ~-~~-~~-~~-~~-~~-~~-~~-~~-~~-~~-~~-~~-~~-~~-~ EB_MESH ELEMENTS
*ELEMENT, TYPE=C3D20R, ELSET=E33
33, 406, 496, 506, 416, 408, 498, 508, 418, 451, 501, 461, 411, 
453, 503, 463, 413, 407, 497, 507, 417
*ELEMENT, TYPE=C3D20R, ELSET=E34
34, 408, 498, 508, 418, 410, 500, 510, 420, 453, 503, 463, 413, 
455, 505, 465, 415, 409, 499, 509, 419
*ELEMENT, TYPE=C3D20R, ELSET=E35
35, 416, 506, 516, 426, 418, 508, 518, 428, 461, 511, 471, 421, 
463, 513, 473, 423, 417, 507, 517, 427
*ELEMENT, TYPE=C3D20R, ELSET=E36
36, 418, 508, 518, 428, 420, 510, 520, 430, 463, 513, 473, 423, 
465, 515, 475, 425, 419, 509, 519, 429
*ELEMENT, TYPE=C3D20R, ELSET=E37
37, 426, 516, 526, 436, 428, 518, 528, 438, 471, 521, 481, 431, 
473, 523, 483, 433, 427, 517, 527, 437
*ELEMENT, TYPE=C3D20R, ELSET=E38
38, 428, 518, 528, 438, 430, 520, 530, 440, 473, 523, 483, 433, 
475, 525, 485, 435, 429, 519, 529, 439
*ELEMENT, TYPE=C3D20R, ELSET=E39
39, 436, 526, 536, 446, 438, 528, 538, 448, 481, 531, 491, 441, 
483, 533, 493, 443, 437, 527, 537, 447
*ELEMENT, TYPE=C3D20R, ELSET=E40
40, 438, 528, 538, 448, 440, 530, 540, 450, 483, 533, 493, 443, 
485, 535, 495, 445, 439, 529, 539, 449
*ELEMENT, TYPE=C3D20R, ELSET=E41
41, 496, 586, 596, 506, 498, 588, 598, 508, 541, 591, 551, 501, 
543, 593, 553, 503, 497, 587, 597, 507
*ELEMENT, TYPE=C3D20R, ELSET=E42
42, 498, 588, 598, 508, 500, 590, 600, 510, 543, 593, 553, 503, 
545, 595, 555, 505, 499, 589, 599, 509
*ELEMENT, TYPE=C3D20R, ELSET=E43
43, 506, 596, 606, 516, 508, 598, 608, 518, 551, 601, 561, 511, 
553, 603, 563, 513, 507, 597, 607, 517
*ELEMENT, TYPE=C3D20R, ELSET=E44
44, 508, 598, 608, 518, 510, 600, 610, 520, 553, 603, 563, 513, 
555, 605, 565, 515, 509, 599, 609, 519
*ELEMENT, TYPE=C3D20R, ELSET=E45
45, 516, 606, 616, 526, 518, 608, 618, 528, 561, 611, 571, 521, 
563, 613, 573, 523, 517, 607, 617, 527
*ELEMENT, TYPE=C3D20R, ELSET=E46
46, 518, 608, 618, 528, 520, 610, 620, 530, 563, 613, 573, 523, 
565, 615, 575, 525, 519, 609, 619, 529
*ELEMENT, TYPE=C3D20R, ELSET=E47
47, 526, 616, 626, 536, 528, 618, 628, 538, 571, 621, 581, 531, 
573, 623, 583, 533, 527, 617, 627, 537
*ELEMENT, TYPE=C3D20R, ELSET=E48
48, 528, 618, 628, 538, 530, 620, 630, 540, 573, 623, 583, 533, 
575, 625, 585, 535, 529, 619, 629, 539
*ELEMENT, TYPE=C3D20R, ELSET=E49
49, 586, 676, 686, 596, 588, 678, 688, 598, 631, 681, 641, 591, 
633, 683, 643, 593, 587, 677, 687, 597
*ELEMENT, TYPE=C3D20R, ELSET=E50
50, 588, 678, 688, 598, 590, 680, 690, 600, 633, 683, 643, 593, 
635, 685, 645, 595, 589, 679, 689, 599
*ELEMENT, TYPE=C3D20R, ELSET=E51
51, 596, 686, 696, 606, 598, 688, 698, 608, 641, 691, 651, 601, 
643, 693, 653, 603, 597, 687, 697, 607
*ELEMENT, TYPE=C3D20R, ELSET=E52
52, 598, 688, 698, 608, 600, 690, 700, 610, 643, 693, 653, 603, 
645, 695, 655, 605, 599, 689, 699, 609
** ... 84 like lines cut
** <END> ~-~~-~~-~~-~~-~~-~~-~~-~~-~~-~~-~~-~~-~~-~~-~ EB_MESH ELEMENTS
*ELSET, ELSET=EALL
1, 2, 3, 4, 5, 6, 7, 8, 9, 10, 11, 12, 13
14, 15, 16, 17, 18, 19, 20, 21, 22, 23, 24, 25, 26
27, 28, 29, 30, 31, 32, 33, 34, 35, 36, 37, 38, 39
40, 41, 42, 43, 44, 45, 46, 47, 48, 49, 50, 51, 52
53, 54, 55, 56, 57, 58, 59, 60, 61, 62, 63, 64, 65
66, 67, 68, 69, 70, 71, 72, 73, 74, 75, 76, 77, 78
79, 80
********************************************************************************
*MATERIAL, NAME=Alloy_713LC_E1
**  ELSET VOL FRAC = 1.0
*DENSITY
0.000748533, -1.0
0.000748533, 1.0
*ELASTIC, TYPE=ENGINEERING CONSTANTS
28873091.7796, 28873091.7796, 28873091.7796, 0.3, 0.3, 0.3, 11105035.2998, 11105035.2998
11105035.2998, -1.0
28865399.0534, 28865399.0534, 28865399.0534, 0.3, 0.3, 0.3, 11102076.559, 11102076.559
11102076.559, 1.0
*EXPANSION, TYPE=ORTHO, ZERO=0.0
5.6e-06, 5.6e-06, 5.6e-06, -1.0
5.6e-06, 5.6e-06, 5.6e-06, 1.0
*SOLID SECTION, ELSET=E1, MATERIAL=Alloy_713LC_E1
*MATERIAL, NAME=Alloy_713LC_E2
**  ELSET VOL FRAC = 1.0
*DENSITY
0.000748533, -1.0
0.000748533, 1.0
*ELASTIC, TYPE=ENGINEERING CONSTANTS
28873091.7796, 28873091.7796, 28873091.7796, 0.3, 0.3, 0.3, 11105035.2998, 11105035.2998
11105035.2998, -1.0
28865399.0534, 28865399.0534, 28865399.0534, 0.3, 0.3, 0.3, 11102076.559, 11102076.559
11102076.559, 1.0
*EXPANSION, TYPE=ORTHO, ZERO=0.0
5.6e-06, 5.6e-06, 5.6e-06, -1.0
5.6e-06, 5.6e-06, 5.6e-06, 1.0
*SOLID SECTION, ELSET=E2, MATERIAL=Alloy_713LC_E2
*MATERIAL, NAME=Alloy_713LC_E3
**  ELSET VOL FRAC = 1.0
*DENSITY
0.000748533, -1.0
0.000748533, 1.0
*ELASTIC, TYPE=ENGINEERING CONSTANTS
28873091.7796, 28873091.7796, 28873091.7796, 0.3, 0.3, 0.3, 11105035.2998, 11105035.2998
11105035.2998, -1.0
28865399.0534, 28865399.0534, 28865399.0534, 0.3, 0.3, 0.3, 11102076.559, 11102076.559
11102076.559, 1.0
*EXPANSION, TYPE=ORTHO, ZERO=0.0
5.6e-06, 5.6e-06, 5.6e-06, -1.0
5.6e-06, 5.6e-06, 5.6e-06, 1.0
*SOLID SECTION, ELSET=E3, MATERIAL=Alloy_713LC_E3
*MATERIAL, NAME=Alloy_713LC_E4
**  ELSET VOL FRAC = 1.0
*DENSITY
0.000748533, -1.0
0.000748533, 1.0
*ELASTIC, TYPE=ENGINEERING CONSTANTS
28873091.7796, 28873091.7796, 28873091.7796, 0.3, 0.3, 0.3, 11105035.2998, 11105035.2998
11105035.2998, -1.0
28865399.0534, 28865399.0534, 28865399.0534, 0.3, 0.3, 0.3, 11102076.559, 11102076.559
11102076.559, 1.0
*EXPANSION, TYPE=ORTHO, ZERO=0.0
5.6e-06, 5.6e-06, 5.6e-06, -1.0
5.6e-06, 5.6e-06, 5.6e-06, 1.0
*SOLID SECTION, ELSET=E4, MATERIAL=Alloy_713LC_E4
*MATERIAL, NAME=Alloy_713LC_E5
**  ELSET VOL FRAC = 1.0
*DENSITY
0.000748533, -1.0
0.000748533, 1.0
*ELASTIC, TYPE=ENGINEERING CONSTANTS
28873091.7796, 28873091.7796, 28873091.7796, 0.3, 0.3, 0.3, 11105035.2998, 11105035.2998
11105035.2998, -1.0
28865399.0534, 28865399.0534, 28865399.0534, 0.3, 0.3, 0.3, 11102076.559, 11102076.559
11102076.559, 1.0
*EXPANSION, TYPE=ORTHO, ZERO=0.0
5.6e-06, 5.6e-06, 5.6e-06, -1.0
5.6e-06, 5.6e-06, 5.6e-06, 1.0
*SOLID SECTION, ELSET=E5, MATERIAL=Alloy_713LC_E5
*MATERIAL, NAME=Alloy_713LC_E6
**  ELSET VOL FRAC = 1.0
*DENSITY
0.000748533, -1.0
0.000748533, 1.0
*ELASTIC, TYPE=ENGINEERING CONSTANTS
28873091.7796, 28873091.7796, 28873091.7796, 0.3, 0.3, 0.3, 11105035.2998, 11105035.2998
11105035.2998, -1.0
28865399.0534, 28865399.0534, 28865399.0534, 0.3, 0.3, 0.3, 11102076.559, 11102076.559
11102076.559, 1.0
*EXPANSION, TYPE=ORTHO, ZERO=0.0
5.6e-06, 5.6e-06, 5.6e-06, -1.0
5.6e-06, 5.6e-06, 5.6e-06, 1.0
*SOLID SECTION, ELSET=E6, MATERIAL=Alloy_713LC_E6
*MATERIAL, NAME=Alloy_713LC_E7
**  ELSET VOL FRAC = 1.0
*DENSITY
0.000748533, -1.0
0.000748533, 1.0
*ELASTIC, TYPE=ENGINEERING CONSTANTS
28873091.7796, 28873091.7796, 28873091.7796, 0.3, 0.3, 0.3, 11105035.2998, 11105035.2998
11105035.2998, -1.0
28865399.0534, 28865399.0534, 28865399.0534, 0.3, 0.3, 0.3, 11102076.559, 11102076.559
11102076.559, 1.0
*EXPANSION, TYPE=ORTHO, ZERO=0.0
5.6e-06, 5.6e-06, 5.6e-06, -1.0
5.6e-06, 5.6e-06, 5.6e-06, 1.0
*SOLID SECTION, ELSET=E7, MATERIAL=Alloy_713LC_E7
*MATERIAL, NAME=Alloy_713LC_E8
**  ELSET VOL FRAC = 1.0
*DENSITY
0.000748533, -1.0
0.000748533, 1.0
*ELASTIC, TYPE=ENGINEERING CONSTANTS
28873091.7796, 28873091.7796, 28873091.7796, 0.3, 0.3, 0.3, 11105035.2998, 11105035.2998
11105035.2998, -1.0
28865399.0534, 28865399.0534, 28865399.0534, 0.3, 0.3, 0.3, 11102076.559, 11102076.559
11102076.559, 1.0
*EXPANSION, TYPE=ORTHO, ZERO=0.0
5.6e-06, 5.6e-06, 5.6e-06, -1.0
5.6e-06, 5.6e-06, 5.6e-06, 1.0
*SOLID SECTION, ELSET=E8, MATERIAL=Alloy_713LC_E8
*MATERIAL, NAME=Alloy_713LC_E9
**  ELSET VOL FRAC = 1.0
*DENSITY
0.000748533, -1.0
0.000748533, 1.0
*ELASTIC, TYPE=ENGINEERING CONSTANTS
28873091.7796, 28873091.7796, 28873091.7796, 0.3, 0.3, 0.3, 11105035.2998, 11105035.2998
11105035.2998, -1.0
28865399.0534, 28865399.0534, 28865399.0534, 0.3, 0.3, 0.3, 11102076.559, 11102076.559
11102076.559, 1.0
*EXPANSION, TYPE=ORTHO, ZERO=0.0
5.6e-06, 5.6e-06, 5.6e-06, -1.0
5.6e-06, 5.6e-06, 5.6e-06, 1.0
*SOLID SECTION, ELSET=E9, MATERIAL=Alloy_713LC_E9
*MATERIAL, NAME=Alloy_713LC_E10
**  ELSET VOL FRAC = 1.0
*DENSITY
0.000748533, -1.0
0.000748533, 1.0
*ELASTIC, TYPE=ENGINEERING CONSTANTS
28873091.7796, 28873091.7796, 28873091.7796, 0.3, 0.3, 0.3, 11105035.2998, 11105035.2998
11105035.2998, -1.0
28865399.0534, 28865399.0534, 28865399.0534, 0.3, 0.3, 0.3, 11102076.559, 11102076.559
11102076.559, 1.0
*EXPANSION, TYPE=ORTHO, ZERO=0.0
5.6e-06, 5.6e-06, 5.6e-06, -1.0
5.6e-06, 5.6e-06, 5.6e-06, 1.0
*SOLID SECTION, ELSET=E10, MATERIAL=Alloy_713LC_E10
*MATERIAL, NAME=Alloy_713LC_E11
**  ELSET VOL FRAC = 1.0
*DENSITY
0.000748533, -1.0
0.000748533, 1.0
*ELASTIC, TYPE=ENGINEERING CONSTANTS
28873091.7796, 28873091.7796, 28873091.7796, 0.3, 0.3, 0.3, 11105035.2998, 11105035.2998
11105035.2998, -1.0
28865399.0534, 28865399.0534, 28865399.0534, 0.3, 0.3, 0.3, 11102076.559, 11102076.559
11102076.559, 1.0
*EXPANSION, TYPE=ORTHO, ZERO=0.0
5.6e-06, 5.6e-06, 5.6e-06, -1.0
5.6e-06, 5.6e-06, 5.6e-06, 1.0
*SOLID SECTION, ELSET=E11, MATERIAL=Alloy_713LC_E11
*MATERIAL, NAME=Alloy_713LC_E12
**  ELSET VOL FRAC = 1.0
*DENSITY
0.000748533, -1.0
0.000748533, 1.0
*ELASTIC, TYPE=ENGINEERING CONSTANTS
28873091.7796, 28873091.7796, 28873091.7796, 0.3, 0.3, 0.3, 11105035.2998, 11105035.2998
11105035.2998, -1.0
28865399.0534, 28865399.0534, 28865399.0534, 0.3, 0.3, 0.3, 11102076.559, 11102076.559
11102076.559, 1.0
*EXPANSION, TYPE=ORTHO, ZERO=0.0
5.6e-06, 5.6e-06, 5.6e-06, -1.0
5.6e-06, 5.6e-06, 5.6e-06, 1.0
*SOLID SECTION, ELSET=E12, MATERIAL=Alloy_713LC_E12
*MATERIAL, NAME=Alloy_713LC_E13
**  ELSET VOL FRAC = 1.0
*DENSITY
0.000748533, -1.0
0.000748533, 1.0
*ELASTIC, TYPE=ENGINEERING CONSTANTS
28873091.7796, 28873091.7796, 28873091.7796, 0.3, 0.3, 0.3, 11105035.2998, 11105035.2998
11105035.2998, -1.0
28865399.0534, 28865399.0534, 28865399.0534, 0.3, 0.3, 0.3, 11102076.559, 11102076.559
11102076.559, 1.0
*EXPANSION, TYPE=ORTHO, ZERO=0.0
5.6e-06, 5.6e-06, 5.6e-06, -1.0
5.6e-06, 5.6e-06, 5.6e-06, 1.0
*SOLID SECTION, ELSET=E13, MATERIAL=Alloy_713LC_E13
*MATERIAL, NAME=Alloy_713LC_E14
**  ELSET VOL FRAC = 1.0
*DENSITY
0.000748533, -1.0
0.000748533, 1.0
*ELASTIC, TYPE=ENGINEERING CONSTANTS
28873091.7796, 28873091.7796, 28873091.7796, 0.3, 0.3, 0.3, 11105035.2998, 11105035.2998
11105035.2998, -1.0
28865399.0534, 28865399.0534, 28865399.0534, 0.3, 0.3, 0.3, 11102076.559, 11102076.559
11102076.559, 1.0
*EXPANSION, TYPE=ORTHO, ZERO=0.0
5.6e-06, 5.6e-06, 5.6e-06, -1.0
5.6e-06, 5.6e-06, 5.6e-06, 1.0
*SOLID SECTION, ELSET=E14, MATERIAL=Alloy_713LC_E14
*MATERIAL, NAME=Alloy_713LC_E15
**  ELSET VOL FRAC = 1.0
*DENSITY
0.000748533, -1.0
0.000748533, 1.0
*ELASTIC, TYPE=ENGINEERING CONSTANTS
28873091.7796, 28873091.7796, 28873091.7796, 0.3, 0.3, 0.3, 11105035.2998, 11105035.2998
11105035.2998, -1.0
28865399.0534, 28865399.0534, 28865399.0534, 0.3, 0.3, 0.3, 11102076.559, 11102076.559
11102076.559, 1.0
*EXPANSION, TYPE=ORTHO, ZERO=0.0
5.6e-06, 5.6e-06, 5.6e-06, -1.0
5.6e-06, 5.6e-06, 5.6e-06, 1.0
*SOLID SECTION, ELSET=E15, MATERIAL=Alloy_713LC_E15
*MATERIAL, NAME=Alloy_713LC_E16
**  ELSET VOL FRAC = 1.0
*DENSITY
0.000748533, -1.0
0.000748533, 1.0
*ELASTIC, TYPE=ENGINEERING CONSTANTS
28873091.7796, 28873091.7796, 28873091.7796, 0.3, 0.3, 0.3, 11105035.2998, 11105035.2998
11105035.2998, -1.0
28865399.0534, 28865399.0534, 28865399.0534, 0.3, 0.3, 0.3, 11102076.559, 11102076.559
11102076.559, 1.0
*EXPANSION, TYPE=ORTHO, ZERO=0.0
5.6e-06, 5.6e-06, 5.6e-06, -1.0
5.6e-06, 5.6e-06, 5.6e-06, 1.0
*SOLID SECTION, ELSET=E16, MATERIAL=Alloy_713LC_E16
*MATERIAL, NAME=Alloy_713LC_E17
**  ELSET VOL FRAC = 1.0
*DENSITY
0.000748533, -1.0
0.000748533, 1.0
*ELASTIC, TYPE=ENGINEERING CONSTANTS
28873091.7796, 28873091.7796, 28873091.7796, 0.3, 0.3, 0.3, 11105035.2998, 11105035.2998
11105035.2998, -1.0
28865399.0534, 28865399.0534, 28865399.0534, 0.3, 0.3, 0.3, 11102076.559, 11102076.559
11102076.559, 1.0
*EXPANSION, TYPE=ORTHO, ZERO=0.0
5.6e-06, 5.6e-06, 5.6e-06, -1.0
5.6e-06, 5.6e-06, 5.6e-06, 1.0
*SOLID SECTION, ELSET=E17, MATERIAL=Alloy_713LC_E17
*MATERIAL, NAME=Alloy_713LC_E18
**  ELSET VOL FRAC = 1.0
*DENSITY
0.000748533, -1.0
0.000748533, 1.0
*ELASTIC, TYPE=ENGINEERING CONSTANTS
28873091.7796, 28873091.7796, 28873091.7796, 0.3, 0.3, 0.3, 11105035.2998, 11105035.2998
11105035.2998, -1.0
28865399.0534, 28865399.0534, 28865399.0534, 0.3, 0.3, 0.3, 11102076.559, 11102076.559
11102076.559, 1.0
*EXPANSION, TYPE=ORTHO, ZERO=0.0
5.6e-06, 5.6e-06, 5.6e-06, -1.0
5.6e-06, 5.6e-06, 5.6e-06, 1.0
*SOLID SECTION, ELSET=E18, MATERIAL=Alloy_713LC_E18
*MATERIAL, NAME=Alloy_713LC_E19
**  ELSET VOL FRAC = 1.0
*DENSITY
0.000748533, -1.0
0.000748533, 1.0
*ELASTIC, TYPE=ENGINEERING CONSTANTS
28873091.7796, 28873091.7796, 28873091.7796, 0.3, 0.3, 0.3, 11105035.2998, 11105035.2998
11105035.2998, -1.0
28865399.0534, 28865399.0534, 28865399.0534, 0.3, 0.3, 0.3, 11102076.559, 11102076.559
11102076.559, 1.0
*EXPANSION, TYPE=ORTHO, ZERO=0.0
5.6e-06, 5.6e-06, 5.6e-06, -1.0
5.6e-06, 5.6e-06, 5.6e-06, 1.0
*SOLID SECTION, ELSET=E19, MATERIAL=Alloy_713LC_E19
*MATERIAL, NAME=Alloy_713LC_E20
**  ELSET VOL FRAC = 1.0
*DENSITY
0.000748533, -1.0
0.000748533, 1.0
*ELASTIC, TYPE=ENGINEERING CONSTANTS
28873091.7796, 28873091.7796, 28873091.7796, 0.3, 0.3, 0.3, 11105035.2998, 11105035.2998
11105035.2998, -1.0
28865399.0534, 28865399.0534, 28865399.0534, 0.3, 0.3, 0.3, 11102076.559, 11102076.559
11102076.559, 1.0
*EXPANSION, TYPE=ORTHO, ZERO=0.0
5.6e-06, 5.6e-06, 5.6e-06, -1.0
5.6e-06, 5.6e-06, 5.6e-06, 1.0
*SOLID SECTION, ELSET=E20, MATERIAL=Alloy_713LC_E20
*MATERIAL, NAME=Alloy_713LC_E21
**  ELSET VOL FRAC = 1.0
*DENSITY
0.000748533, -1.0
0.000748533, 1.0
*ELASTIC, TYPE=ENGINEERING CONSTANTS
28873091.7796, 28873091.7796, 28873091.7796, 0.3, 0.3, 0.3, 11105035.2998, 11105035.2998
11105035.2998, -1.0
28865399.0534, 28865399.0534, 28865399.0534, 0.3, 0.3, 0.3, 11102076.559, 11102076.559
11102076.559, 1.0
*EXPANSION, TYPE=ORTHO, ZERO=0.0
5.6e-06, 5.6e-06, 5.6e-06, -1.0
5.6e-06, 5.6e-06, 5.6e-06, 1.0
*SOLID SECTION, ELSET=E21, MATERIAL=Alloy_713LC_E21
*MATERIAL, NAME=Alloy_713LC_E22
**  ELSET VOL FRAC = 1.0
*DENSITY
0.000748533, -1.0
0.000748533, 1.0
*ELASTIC, TYPE=ENGINEERING CONSTANTS
28873091.7796, 28873091.7796, 28873091.7796, 0.3, 0.3, 0.3, 11105035.2998, 11105035.2998
11105035.2998, -1.0
28865399.0534, 28865399.0534, 28865399.0534, 0.3, 0.3, 0.3, 11102076.559, 11102076.559
11102076.559, 1.0
*EXPANSION, TYPE=ORTHO, ZERO=0.0
5.6e-06, 5.6e-06, 5.6e-06, -1.0
5.6e-06, 5.6e-06, 5.6e-06, 1.0
*SOLID SECTION, ELSET=E22, MATERIAL=Alloy_713LC_E22
*MATERIAL, NAME=Alloy_713LC_E23
**  ELSET VOL FRAC = 1.0
*DENSITY
0.000748533, -1.0
0.000748533, 1.0
*ELASTIC, TYPE=ENGINEERING CONSTANTS
28873091.7796, 28873091.7796, 28873091.7796, 0.3, 0.3, 0.3, 11105035.2998, 11105035.2998
11105035.2998, -1.0
28865399.0534, 28865399.0534, 28865399.0534, 0.3, 0.3, 0.3, 11102076.559, 11102076.559
11102076.559, 1.0
*EXPANSION, TYPE=ORTHO, ZERO=0.0
5.6e-06, 5.6e-06, 5.6e-06, -1.0
5.6e-06, 5.6e-06, 5.6e-06, 1.0
*SOLID SECTION, ELSET=E23, MATERIAL=Alloy_713LC_E23
*MATERIAL, NAME=Alloy_713LC_E24
**  ELSET VOL FRAC = 1.0
*DENSITY
0.000748533, -1.0
0.000748533, 1.0
*ELASTIC, TYPE=ENGINEERING CONSTANTS
28873091.7796, 28873091.7796, 28873091.7796, 0.3, 0.3, 0.3, 11105035.2998, 11105035.2998
11105035.2998, -1.0
28865399.0534, 28865399.0534, 28865399.0534, 0.3, 0.3, 0.3, 11102076.559, 11102076.559
11102076.559, 1.0
*EXPANSION, TYPE=ORTHO, ZERO=0.0
5.6e-06, 5.6e-06, 5.6e-06, -1.0
5.6e-06, 5.6e-06, 5.6e-06, 1.0
*SOLID SECTION, ELSET=E24, MATERIAL=Alloy_713LC_E24
*MATERIAL, NAME=Alloy_713LC_E25
**  ELSET VOL FRAC = 1.0
*DENSITY
0.000748533, -1.0
0.000748533, 1.0
*ELASTIC, TYPE=ENGINEERING CONSTANTS
28873091.7796, 28873091.7796, 28873091.7796, 0.3, 0.3, 0.3, 11105035.2998, 11105035.2998
11105035.2998, -1.0
28865399.0534, 28865399.0534, 28865399.0534, 0.3, 0.3, 0.3, 11102076.559, 11102076.559
11102076.559, 1.0
*EXPANSION, TYPE=ORTHO, ZERO=0.0
5.6e-06, 5.6e-06, 5.6e-06, -1.0
5.6e-06, 5.6e-06, 5.6e-06, 1.0
*SOLID SECTION, ELSET=E25, MATERIAL=Alloy_713LC_E25
*MATERIAL, NAME=Alloy_713LC_E26
**  ELSET VOL FRAC = 1.0
*DENSITY
0.000748533, -1.0
0.000748533, 1.0
*ELASTIC, TYPE=ENGINEERING CONSTANTS
28873091.7796, 28873091.7796, 28873091.7796, 0.3, 0.3, 0.3, 11105035.2998, 11105035.2998
11105035.2998, -1.0
28865399.0534, 28865399.0534, 28865399.0534, 0.3, 0.3, 0.3, 11102076.559, 11102076.559
11102076.559, 1.0
*EXPANSION, TYPE=ORTHO, ZERO=0.0
5.6e-06, 5.6e-06, 5.6e-06, -1.0
5.6e-06, 5.6e-06, 5.6e-06, 1.0
*SOLID SECTION, ELSET=E26, MATERIAL=Alloy_713LC_E26
*MATERIAL, NAME=Alloy_713LC_E27
**  ELSET VOL FRAC = 1.0
*DENSITY
0.000748533, -1.0
0.000748533, 1.0
*ELASTIC, TYPE=ENGINEERING CONSTANTS
28873091.7796, 28873091.7796, 28873091.7796, 0.3, 0.3, 0.3, 11105035.2998, 11105035.2998
11105035.2998, -1.0
28865399.0534, 28865399.0534, 28865399.0534, 0.3, 0.3, 0.3, 11102076.559, 11102076.559
11102076.559, 1.0
*EXPANSION, TYPE=ORTHO, ZERO=0.0
5.6e-06, 5.6e-06, 5.6e-06, -1.0
5.6e-06, 5.6e-06, 5.6e-06, 1.0
*SOLID SECTION, ELSET=E27, MATERIAL=Alloy_713LC_E27
*MATERIAL, NAME=Alloy_713LC_E28
**  ELSET VOL FRAC = 1.0
*DENSITY
0.000748533, -1.0
0.000748533, 1.0
*ELASTIC, TYPE=ENGINEERING CONSTANTS
28873091.7796, 28873091.7796, 28873091.7796, 0.3, 0.3, 0.3, 11105035.2998, 11105035.2998
11105035.2998, -1.0
28865399.0534, 28865399.0534, 28865399.0534, 0.3, 0.3, 0.3, 11102076.559, 11102076.559
11102076.559, 1.0
*EXPANSION, TYPE=ORTHO, ZERO=0.0
5.6e-06, 5.6e-06, 5.6e-06, -1.0
5.6e-06, 5.6e-06, 5.6e-06, 1.0
*SOLID SECTION, ELSET=E28, MATERIAL=Alloy_713LC_E28
*MATERIAL, NAME=Alloy_713LC_E29
**  ELSET VOL FRAC = 1.0
*DENSITY
0.000748533, -1.0
0.000748533, 1.0
*ELASTIC, TYPE=ENGINEERING CONSTANTS
28873091.7796, 28873091.7796, 28873091.7796, 0.3, 0.3, 0.3, 11105035.2998, 11105035.2998
11105035.2998, -1.0
28865399.0534, 28865399.0534, 28865399.0534, 0.3, 0.3, 0.3, 11102076.559, 11102076.559
11102076.559, 1.0
*EXPANSION, TYPE=ORTHO, ZERO=0.0
5.6e-06, 5.6e-06, 5.6e-06, -1.0
5.6e-06, 5.6e-06, 5.6e-06, 1.0
*SOLID SECTION, ELSET=E29, MATERIAL=Alloy_713LC_E29
*MATERIAL, NAME=Alloy_713LC_E30
**  ELSET VOL FRAC = 1.0
*DENSITY
0.000748533, -1.0
0.000748533, 1.0
*ELASTIC, TYPE=ENGINEERING CONSTANTS
28873091.7796, 28873091.7796, 28873091.7796, 0.3, 0.3, 0.3, 11105035.2998, 11105035.2998
11105035.2998, -1.0
28865399.0534, 28865399.0534, 28865399.0534, 0.3, 0.3, 0.3, 11102076.559, 11102076.559
11102076.559, 1.0
*EXPANSION, TYPE=ORTHO, ZERO=0.0
5.6e-06, 5.6e-06, 5.6e-06, -1.0
5.6e-06, 5.6e-06, 5.6e-06, 1.0
*SOLID SECTION, ELSET=E30, MATERIAL=Alloy_713LC_E30
*MATERIAL, NAME=Alloy_713LC_E31
**  ELSET VOL FRAC = 1.0
*DENSITY
0.000748533, -1.0
0.000748533, 1.0
*ELASTIC, TYPE=ENGINEERING CONSTANTS
28873091.7796, 28873091.7796, 28873091.7796, 0.3, 0.3, 0.3, 11105035.2998, 11105035.2998
11105035.2998, -1.0
28865399.0534, 28865399.0534, 28865399.0534, 0.3, 0.3, 0.3, 11102076.559, 11102076.559
11102076.559, 1.0
*EXPANSION, TYPE=ORTHO, ZERO=0.0
5.6e-06, 5.6e-06, 5.6e-06, -1.0
5.6e-06, 5.6e-06, 5.6e-06, 1.0
*SOLID SECTION, ELSET=E31, MATERIAL=Alloy_713LC_E31
*MATERIAL, NAME=Alloy_713LC_E32
**  ELSET VOL FRAC = 1.0
*DENSITY
0.000748533, -1.0
0.000748533, 1.0
*ELASTIC, TYPE=ENGINEERING CONSTANTS
28873091.7796, 28873091.7796, 28873091.7796, 0.3, 0.3, 0.3, 11105035.2998, 11105035.2998
11105035.2998, -1.0
28865399.0534, 28865399.0534, 28865399.0534, 0.3, 0.3, 0.3, 11102076.559, 11102076.559
11102076.559, 1.0
*EXPANSION, TYPE=ORTHO, ZERO=0.0
5.6e-06, 5.6e-06, 5.6e-06, -1.0
5.6e-06, 5.6e-06, 5.6e-06, 1.0
*SOLID SECTION, ELSET=E32, MATERIAL=Alloy_713LC_E32
********************************************************************************
*MATERIAL, NAME=Alloy_713LC_E33
**  ELSET VOL FRAC = 1.0
*DENSITY
0.000748533, -1.0
0.000748533, 1.0
*ELASTIC, TYPE=ENGINEERING CONSTANTS
28873091.7796, 28873091.7796, 28873091.7796, 0.3, 0.3, 0.3, 11105035.2998, 11105035.2998
11105035.2998, -1.0
28865399.0534, 28865399.0534, 28865399.0534, 0.3, 0.3, 0.3, 11102076.559, 11102076.559
11102076.559, 1.0
*EXPANSION, TYPE=ORTHO, ZERO=0.0
5.6e-06, 5.6e-06, 5.6e-06, -1.0
5.6e-06, 5.6e-06, 5.6e-06, 1.0
*SOLID SECTION, ELSET=E33, MATERIAL=Alloy_713LC_E33
*MATERIAL, NAME=Alloy_713LC_E34
**  ELSET VOL FRAC = 1.0
*DENSITY
0.000748533, -1.0
0.000748533, 1.0
*ELASTIC, TYPE=ENGINEERING CONSTANTS
28873091.7796, 28873091.7796, 28873091.7796, 0.3, 0.3, 0.3, 11105035.2998, 11105035.2998
11105035.2998, -1.0
28865399.0534, 28865399.0534, 28865399.0534, 0.3, 0.3, 0.3, 11102076.559, 11102076.559
11102076.559, 1.0
*EXPANSION, TYPE=ORTHO, ZERO=0.0
5.6e-06, 5.6e-06, 5.6e-06, -1.0
5.6e-06, 5.6e-06, 5.6e-06, 1.0
*SOLID SECTION, ELSET=E34, MATERIAL=Alloy_713LC_E34
*MATERIAL, NAME=Alloy_713LC_E35
**  ELSET VOL FRAC = 1.0
*DENSITY
0.000748533, -1.0
0.000748533, 1.0
*ELASTIC, TYPE=ENGINEERING CONSTANTS
28873091.7796, 28873091.7796, 28873091.7796, 0.3, 0.3, 0.3, 11105035.2998, 11105035.2998
11105035.2998, -1.0
28865399.0534, 28865399.0534, 28865399.0534, 0.3, 0.3, 0.3, 11102076.559, 11102076.559
11102076.559, 1.0
*EXPANSION, TYPE=ORTHO, ZERO=0.0
5.6e-06, 5.6e-06, 5.6e-06, -1.0
5.6e-06, 5.6e-06, 5.6e-06, 1.0
*SOLID SECTION, ELSET=E35, MATERIAL=Alloy_713LC_E35
*MATERIAL, NAME=Alloy_713LC_E36
**  ELSET VOL FRAC = 1.0
*DENSITY
0.000748533, -1.0
0.000748533, 1.0
*ELASTIC, TYPE=ENGINEERING CONSTANTS
28873091.7796, 28873091.7796, 28873091.7796, 0.3, 0.3, 0.3, 11105035.2998, 11105035.2998
11105035.2998, -1.0
28865399.0534, 28865399.0534, 28865399.0534, 0.3, 0.3, 0.3, 11102076.559, 11102076.559
11102076.559, 1.0
*EXPANSION, TYPE=ORTHO, ZERO=0.0
5.6e-06, 5.6e-06, 5.6e-06, -1.0
5.6e-06, 5.6e-06, 5.6e-06, 1.0
*SOLID SECTION, ELSET=E36, MATERIAL=Alloy_713LC_E36
*MATERIAL, NAME=Alloy_713LC_E37
**  ELSET VOL FRAC = 1.0
*DENSITY
0.000748533, -1.0
0.000748533, 1.0
*ELASTIC, TYPE=ENGINEERING CONSTANTS
28873091.7796, 28873091.7796, 28873091.7796, 0.3, 0.3, 0.3, 11105035.2998, 11105035.2998
11105035.2998, -1.0
28865399.0534, 28865399.0534, 28865399.0534, 0.3, 0.3, 0.3, 11102076.559, 11102076.559
11102076.559, 1.0
*EXPANSION, TYPE=ORTHO, ZERO=0.0
5.6e-06, 5.6e-06, 5.6e-06, -1.0
5.6e-06, 5.6e-06, 5.6e-06, 1.0
*SOLID SECTION, ELSET=E37, MATERIAL=Alloy_713LC_E37
*MATERIAL, NAME=Alloy_713LC_E38
**  ELSET VOL FRAC = 1.0
*DENSITY
0.000748533, -1.0
0.000748533, 1.0
*ELASTIC, TYPE=ENGINEERING CONSTANTS
28873091.7796, 28873091.7796, 28873091.7796, 0.3, 0.3, 0.3, 11105035.2998, 11105035.2998
11105035.2998, -1.0
28865399.0534, 28865399.0534, 28865399.0534, 0.3, 0.3, 0.3, 11102076.559, 11102076.559
11102076.559, 1.0
*EXPANSION, TYPE=ORTHO, ZERO=0.0
5.6e-06, 5.6e-06, 5.6e-06, -1.0
5.6e-06, 5.6e-06, 5.6e-06, 1.0
*SOLID SECTION, ELSET=E38, MATERIAL=Alloy_713LC_E38
*MATERIAL, NAME=Alloy_713LC_E39
**  ELSET VOL FRAC = 1.0
*DENSITY
0.000748533, -1.0
0.000748533, 1.0
*ELASTIC, TYPE=ENGINEERING CONSTANTS
28873091.7796, 28873091.7796, 28873091.7796, 0.3, 0.3, 0.3, 11105035.2998, 11105035.2998
11105035.2998, -1.0
28865399.0534, 28865399.0534, 28865399.0534, 0.3, 0.3, 0.3, 11102076.559, 11102076.559
11102076.559, 1.0
*EXPANSION, TYPE=ORTHO, ZERO=0.0
5.6e-06, 5.6e-06, 5.6e-06, -1.0
5.6e-06, 5.6e-06, 5.6e-06, 1.0
*SOLID SECTION, ELSET=E39, MATERIAL=Alloy_713LC_E39
*MATERIAL, NAME=Alloy_713LC_E40
**  ELSET VOL FRAC = 1.0
*DENSITY
0.000748533, -1.0
0.000748533, 1.0
*ELASTIC, TYPE=ENGINEERING CONSTANTS
28873091.7796, 28873091.7796, 28873091.7796, 0.3, 0.3, 0.3, 11105035.2998, 11105035.2998
11105035.2998, -1.0
28865399.0534, 28865399.0534, 28865399.0534, 0.3, 0.3, 0.3, 11102076.559, 11102076.559
11102076.559, 1.0
*EXPANSION, TYPE=ORTHO, ZERO=0.0
5.6e-06, 5.6e-06, 5.6e-06, -1.0
5.6e-06, 5.6e-06, 5.6e-06, 1.0
*SOLID SECTION, ELSET=E40, MATERIAL=Alloy_713LC_E40
*MATERIAL, NAME=Alloy_713LC_E41
**  ELSET VOL FRAC = 1.0
*DENSITY
0.000748533, -1.0
0.000748533, 1.0
*ELASTIC, TYPE=ENGINEERING CONSTANTS
28873091.7796, 28873091.7796, 28873091.7796, 0.3, 0.3, 0.3, 11105035.2998, 11105035.2998
11105035.2998, -1.0
28865399.0534, 28865399.0534, 28865399.0534, 0.3, 0.3, 0.3, 11102076.559, 11102076.559
11102076.559, 1.0
*EXPANSION, TYPE=ORTHO, ZERO=0.0
5.6e-06, 5.6e-06, 5.6e-06, -1.0
5.6e-06, 5.6e-06, 5.6e-06, 1.0
*SOLID SECTION, ELSET=E41, MATERIAL=Alloy_713LC_E41
*MATERIAL, NAME=Alloy_713LC_E42
**  ELSET VOL FRAC = 1.0
*DENSITY
0.000748533, -1.0
0.000748533, 1.0
*ELASTIC, TYPE=ENGINEERING CONSTANTS
28873091.7796, 28873091.7796, 28873091.7796, 0.3, 0.3, 0.3, 11105035.2998, 11105035.2998
11105035.2998, -1.0
28865399.0534, 28865399.0534, 28865399.0534, 0.3, 0.3, 0.3, 11102076.559, 11102076.559
11102076.559, 1.0
*EXPANSION, TYPE=ORTHO, ZERO=0.0
5.6e-06, 5.6e-06, 5.6e-06, -1.0
5.6e-06, 5.6e-06, 5.6e-06, 1.0
*SOLID SECTION, ELSET=E42, MATERIAL=Alloy_713LC_E42
*MATERIAL, NAME=Alloy_713LC_E43
**  ELSET VOL FRAC = 1.0
*DENSITY
0.000748533, -1.0
0.000748533, 1.0
*ELASTIC, TYPE=ENGINEERING CONSTANTS
28873091.7796, 28873091.7796, 28873091.7796, 0.3, 0.3, 0.3, 11105035.2998, 11105035.2998
11105035.2998, -1.0
28865399.0534, 28865399.0534, 28865399.0534, 0.3, 0.3, 0.3, 11102076.559, 11102076.559
11102076.559, 1.0
*EXPANSION, TYPE=ORTHO, ZERO=0.0
5.6e-06, 5.6e-06, 5.6e-06, -1.0
5.6e-06, 5.6e-06, 5.6e-06, 1.0
*SOLID SECTION, ELSET=E43, MATERIAL=Alloy_713LC_E43
*MATERIAL, NAME=Alloy_713LC_E44
**  ELSET VOL FRAC = 1.0
*DENSITY
0.000748533, -1.0
0.000748533, 1.0
*ELASTIC, TYPE=ENGINEERING CONSTANTS
28873091.7796, 28873091.7796, 28873091.7796, 0.3, 0.3, 0.3, 11105035.2998, 11105035.2998
11105035.2998, -1.0
28865399.0534, 28865399.0534, 28865399.0534, 0.3, 0.3, 0.3, 11102076.559, 11102076.559
11102076.559, 1.0
*EXPANSION, TYPE=ORTHO, ZERO=0.0
5.6e-06, 5.6e-06, 5.6e-06, -1.0
5.6e-06, 5.6e-06, 5.6e-06, 1.0
*SOLID SECTION, ELSET=E44, MATERIAL=Alloy_713LC_E44
*MATERIAL, NAME=Alloy_713LC_E45
**  ELSET VOL FRAC = 1.0
*DENSITY
0.000748533, -1.0
0.000748533, 1.0
*ELASTIC, TYPE=ENGINEERING CONSTANTS
28873091.7796, 28873091.7796, 28873091.7796, 0.3, 0.3, 0.3, 11105035.2998, 11105035.2998
11105035.2998, -1.0
28865399.0534, 28865399.0534, 28865399.0534, 0.3, 0.3, 0.3, 11102076.559, 11102076.559
11102076.559, 1.0
*EXPANSION, TYPE=ORTHO, ZERO=0.0
5.6e-06, 5.6e-06, 5.6e-06, -1.0
5.6e-06, 5.6e-06, 5.6e-06, 1.0
*SOLID SECTION, ELSET=E45, MATERIAL=Alloy_713LC_E45
*MATERIAL, NAME=Alloy_713LC_E46
**  ELSET VOL FRAC = 1.0
*DENSITY
0.000748533, -1.0
0.000748533, 1.0
*ELASTIC, TYPE=ENGINEERING CONSTANTS
28873091.7796, 28873091.7796, 28873091.7796, 0.3, 0.3, 0.3, 11105035.2998, 11105035.2998
11105035.2998, -1.0
28865399.0534, 28865399.0534, 28865399.0534, 0.3, 0.3, 0.3, 11102076.559, 11102076.559
11102076.559, 1.0
*EXPANSION, TYPE=ORTHO, ZERO=0.0
5.6e-06, 5.6e-06, 5.6e-06, -1.0
5.6e-06, 5.6e-06, 5.6e-06, 1.0
*SOLID SECTION, ELSET=E46, MATERIAL=Alloy_713LC_E46
*MATERIAL, NAME=Alloy_713LC_E47
**  ELSET VOL FRAC = 1.0
*DENSITY
0.000748533, -1.0
0.000748533, 1.0
*ELASTIC, TYPE=ENGINEERING CONSTANTS
28873091.7796, 28873091.7796, 28873091.7796, 0.3, 0.3, 0.3, 11105035.2998, 11105035.2998
11105035.2998, -1.0
28865399.0534, 28865399.0534, 28865399.0534, 0.3, 0.3, 0.3, 11102076.559, 11102076.559
11102076.559, 1.0
*EXPANSION, TYPE=ORTHO, ZERO=0.0
5.6e-06, 5.6e-06, 5.6e-06, -1.0
5.6e-06, 5.6e-06, 5.6e-06, 1.0
*SOLID SECTION, ELSET=E47, MATERIAL=Alloy_713LC_E47
*MATERIAL, NAME=Alloy_713LC_E48
**  ELSET VOL FRAC = 1.0
*DENSITY
0.000748533, -1.0
0.000748533, 1.0
*ELASTIC, TYPE=ENGINEERING CONSTANTS
28873091.7796, 28873091.7796, 28873091.7796, 0.3, 0.3, 0.3, 11105035.2998, 11105035.2998
11105035.2998, -1.0
28865399.0534, 28865399.0534, 28865399.0534, 0.3, 0.3, 0.3, 11102076.559, 11102076.559
11102076.559, 1.0
*EXPANSION, TYPE=ORTHO, ZERO=0.0
5.6e-06, 5.6e-06, 5.6e-06, -1.0
5.6e-06, 5.6e-06, 5.6e-06, 1.0
*SOLID SECTION, ELSET=E48, MATERIAL=Alloy_713LC_E48
*MATERIAL, NAME=Alloy_713LC_E49
**  ELSET VOL FRAC = 1.0
*DENSITY
0.000748533, -1.0
0.000748533, 1.0
*ELASTIC, TYPE=ENGINEERING CONSTANTS
28873091.7796, 28873091.7796, 28873091.7796, 0.3, 0.3, 0.3, 11105035.2998, 11105035.2998
11105035.2998, -1.0
28865399.0534, 28865399.0534, 28865399.0534, 0.3, 0.3, 0.3, 11102076.559, 11102076.559
11102076.559, 1.0
*EXPANSION, TYPE=ORTHO, ZERO=0.0
5.6e-06, 5.6e-06, 5.6e-06, -1.0
5.6e-06, 5.6e-06, 5.6e-06, 1.0
*SOLID SECTION, ELSET=E49, MATERIAL=Alloy_713LC_E49
*MATERIAL, NAME=Alloy_713LC_E50
**  ELSET VOL FRAC = 1.0
*DENSITY
0.000748533, -1.0
0.000748533, 1.0
*ELASTIC, TYPE=ENGINEERING CONSTANTS
28873091.7796, 28873091.7796, 28873091.7796, 0.3, 0.3, 0.3, 11105035.2998, 11105035.2998
11105035.2998, -1.0
28865399.0534, 28865399.0534, 28865399.0534, 0.3, 0.3, 0.3, 11102076.559, 11102076.559
11102076.559, 1.0
*EXPANSION, TYPE=ORTHO, ZERO=0.0
5.6e-06, 5.6e-06, 5.6e-06, -1.0
5.6e-06, 5.6e-06, 5.6e-06, 1.0
*SOLID SECTION, ELSET=E50, MATERIAL=Alloy_713LC_E50
*MATERIAL, NAME=Alloy_713LC_E51
**  ELSET VOL FRAC = 1.0
*DENSITY
0.000748533, -1.0
0.000748533, 1.0
*ELASTIC, TYPE=ENGINEERING CONSTANTS
28873091.7796, 28873091.7796, 28873091.7796, 0.3, 0.3, 0.3, 11105035.2998, 11105035.2998
11105035.2998, -1.0
28865399.0534, 28865399.0534, 28865399.0534, 0.3, 0.3, 0.3, 11102076.559, 11102076.559
11102076.559, 1.0
*EXPANSION, TYPE=ORTHO, ZERO=0.0
5.6e-06, 5.6e-06, 5.6e-06, -1.0
5.6e-06, 5.6e-06, 5.6e-06, 1.0
*SOLID SECTION, ELSET=E51, MATERIAL=Alloy_713LC_E51
*MATERIAL, NAME=Alloy_713LC_E52
**  ELSET VOL FRAC = 1.0
*DENSITY
0.000748533, -1.0
0.000748533, 1.0
*ELASTIC, TYPE=ENGINEERING CONSTANTS
28873091.7796, 28873091.7796, 28873091.7796, 0.3, 0.3, 0.3, 11105035.2998, 11105035.2998
11105035.2998, -1.0
28865399.0534, 28865399.0534, 28865399.0534, 0.3, 0.3, 0.3, 11102076.559, 11102076.559
11102076.559, 1.0
*EXPANSION, TYPE=ORTHO, ZERO=0.0
5.6e-06, 5.6e-06, 5.6e-06, -1.0
5.6e-06, 5.6e-06, 5.6e-06, 1.0
*SOLID SECTION, ELSET=E52, MATERIAL=Alloy_713LC_E52
*MATERIAL, NAME=Alloy_713LC_E53
**  ELSET VOL FRAC = 1.0
*DENSITY
0.000748533, -1.0
0.000748533, 1.0
*ELASTIC, TYPE=ENGINEERING CONSTANTS
28873091.7796, 28873091.7796, 28873091.7796, 0.3, 0.3, 0.3, 11105035.2998, 11105035.2998
11105035.2998, -1.0
28865399.0534, 28865399.0534, 28865399.0534, 0.3, 0.3, 0.3, 11102076.559, 11102076.559
11102076.559, 1.0
*EXPANSION, TYPE=ORTHO, ZERO=0.0
5.6e-06, 5.6e-06, 5.6e-06, -1.0
5.6e-06, 5.6e-06, 5.6e-06, 1.0
*SOLID SECTION, ELSET=E53, MATERIAL=Alloy_713LC_E53
*MATERIAL, NAME=Alloy_713LC_E54
**  ELSET VOL FRAC = 1.0
*DENSITY
0.000748533, -1.0
0.000748533, 1.0
*ELASTIC, TYPE=ENGINEERING CONSTANTS
28873091.7796, 28873091.7796, 28873091.7796, 0.3, 0.3, 0.3, 11105035.2998, 11105035.2998
11105035.2998, -1.0
28865399.0534, 28865399.0534, 28865399.0534, 0.3, 0.3, 0.3, 11102076.559, 11102076.559
11102076.559, 1.0
*EXPANSION, TYPE=ORTHO, ZERO=0.0
5.6e-06, 5.6e-06, 5.6e-06, -1.0
5.6e-06, 5.6e-06, 5.6e-06, 1.0
*SOLID SECTION, ELSET=E54, MATERIAL=Alloy_713LC_E54
*MATERIAL, NAME=Alloy_713LC_E55
**  ELSET VOL FRAC = 1.0
*DENSITY
0.000748533, -1.0
0.000748533, 1.0
*ELASTIC, TYPE=ENGINEERING CONSTANTS
28873091.7796, 28873091.7796, 28873091.7796, 0.3, 0.3, 0.3, 11105035.2998, 11105035.2998
11105035.2998, -1.0
28865399.0534, 28865399.0534, 28865399.0534, 0.3, 0.3, 0.3, 11102076.559, 11102076.559
11102076.559, 1.0
*EXPANSION, TYPE=ORTHO, ZERO=0.0
5.6e-06, 5.6e-06, 5.6e-06, -1.0
5.6e-06, 5.6e-06, 5.6e-06, 1.0
*SOLID SECTION, ELSET=E55, MATERIAL=Alloy_713LC_E55
*MATERIAL, NAME=Alloy_713LC_E56
**  ELSET VOL FRAC = 1.0
*DENSITY
0.000748533, -1.0
0.000748533, 1.0
*ELASTIC, TYPE=ENGINEERING CONSTANTS
28873091.7796, 28873091.7796, 28873091.7796, 0.3, 0.3, 0.3, 11105035.2998, 11105035.2998
11105035.2998, -1.0
28865399.0534, 28865399.0534, 28865399.0534, 0.3, 0.3, 0.3, 11102076.559, 11102076.559
11102076.559, 1.0
*EXPANSION, TYPE=ORTHO, ZERO=0.0
5.6e-06, 5.6e-06, 5.6e-06, -1.0
5.6e-06, 5.6e-06, 5.6e-06, 1.0
*SOLID SECTION, ELSET=E56, MATERIAL=Alloy_713LC_E56
*MATERIAL, NAME=Alloy_713LC_E57
**  ELSET VOL FRAC = 1.0
*DENSITY
0.000748533, -1.0
0.000748533, 1.0
*ELASTIC, TYPE=ENGINEERING CONSTANTS
28873091.7796, 28873091.7796, 28873091.7796, 0.3, 0.3, 0.3, 11105035.2998, 11105035.2998
11105035.2998, -1.0
28865399.0534, 28865399.0534, 28865399.0534, 0.3, 0.3, 0.3, 11102076.559, 11102076.559
11102076.559, 1.0
*EXPANSION, TYPE=ORTHO, ZERO=0.0
5.6e-06, 5.6e-06, 5.6e-06, -1.0
5.6e-06, 5.6e-06, 5.6e-06, 1.0
*SOLID SECTION, ELSET=E57, MATERIAL=Alloy_713LC_E57
*MATERIAL, NAME=Alloy_713LC_E58
**  ELSET VOL FRAC = 1.0
*DENSITY
0.000748533, -1.0
0.000748533, 1.0
*ELASTIC, TYPE=ENGINEERING CONSTANTS
28873091.7796, 28873091.7796, 28873091.7796, 0.3, 0.3, 0.3, 11105035.2998, 11105035.2998
11105035.2998, -1.0
28865399.0534, 28865399.0534, 28865399.0534, 0.3, 0.3, 0.3, 11102076.559, 11102076.559
11102076.559, 1.0
*EXPANSION, TYPE=ORTHO, ZERO=0.0
5.6e-06, 5.6e-06, 5.6e-06, -1.0
5.6e-06, 5.6e-06, 5.6e-06, 1.0
*SOLID SECTION, ELSET=E58, MATERIAL=Alloy_713LC_E58
*MATERIAL, NAME=Alloy_713LC_E59
**  ELSET VOL FRAC = 1.0
*DENSITY
0.000748533, -1.0
0.000748533, 1.0
*ELASTIC, TYPE=ENGINEERING CONSTANTS
28873091.7796, 28873091.7796, 28873091.7796, 0.3, 0.3, 0.3, 11105035.2998, 11105035.2998
11105035.2998, -1.0
28865399.0534, 28865399.0534, 28865399.0534, 0.3, 0.3, 0.3, 11102076.559, 11102076.559
11102076.559, 1.0
*EXPANSION, TYPE=ORTHO, ZERO=0.0
5.6e-06, 5.6e-06, 5.6e-06, -1.0
5.6e-06, 5.6e-06, 5.6e-06, 1.0
*SOLID SECTION, ELSET=E59, MATERIAL=Alloy_713LC_E59
*MATERIAL, NAME=Alloy_713LC_E60
**  ELSET VOL FRAC = 1.0
*DENSITY
0.000748533, -1.0
0.000748533, 1.0
*ELASTIC, TYPE=ENGINEERING CONSTANTS
28873091.7796, 28873091.7796, 28873091.7796, 0.3, 0.3, 0.3, 11105035.2998, 11105035.2998
11105035.2998, -1.0
28865399.0534, 28865399.0534, 28865399.0534, 0.3, 0.3, 0.3, 11102076.559, 11102076.559
11102076.559, 1.0
*EXPANSION, TYPE=ORTHO, ZERO=0.0
5.6e-06, 5.6e-06, 5.6e-06, -1.0
5.6e-06, 5.6e-06, 5.6e-06, 1.0
*SOLID SECTION, ELSET=E60, MATERIAL=Alloy_713LC_E60
*MATERIAL, NAME=Alloy_713LC_E61
**  ELSET VOL FRAC = 1.0
*DENSITY
0.000748533, -1.0
0.000748533, 1.0
*ELASTIC, TYPE=ENGINEERING CONSTANTS
28873091.7796, 28873091.7796, 28873091.7796, 0.3, 0.3, 0.3, 11105035.2998, 11105035.2998
11105035.2998, -1.0
28865399.0534, 28865399.0534, 28865399.0534, 0.3, 0.3, 0.3, 11102076.559, 11102076.559
11102076.559, 1.0
*EXPANSION, TYPE=ORTHO, ZERO=0.0
5.6e-06, 5.6e-06, 5.6e-06, -1.0
5.6e-06, 5.6e-06, 5.6e-06, 1.0
*SOLID SECTION, ELSET=E61, MATERIAL=Alloy_713LC_E61
*MATERIAL, NAME=Alloy_713LC_E62
**  ELSET VOL FRAC = 1.0
*DENSITY
0.000748533, -1.0
0.000748533, 1.0
*ELASTIC, TYPE=ENGINEERING CONSTANTS
28873091.7796, 28873091.7796, 28873091.7796, 0.3, 0.3, 0.3, 11105035.2998, 11105035.2998
11105035.2998, -1.0
28865399.0534, 28865399.0534, 28865399.0534, 0.3, 0.3, 0.3, 11102076.559, 11102076.559
11102076.559, 1.0
*EXPANSION, TYPE=ORTHO, ZERO=0.0
5.6e-06, 5.6e-06, 5.6e-06, -1.0
5.6e-06, 5.6e-06, 5.6e-06, 1.0
*SOLID SECTION, ELSET=E62, MATERIAL=Alloy_713LC_E62
*MATERIAL, NAME=Alloy_713LC_E63
**  ELSET VOL FRAC = 1.0
*DENSITY
0.000748533, -1.0
0.000748533, 1.0
*ELASTIC, TYPE=ENGINEERING CONSTANTS
28873091.7796, 28873091.7796, 28873091.7796, 0.3, 0.3, 0.3, 11105035.2998, 11105035.2998
11105035.2998, -1.0
28865399.0534, 28865399.0534, 28865399.0534, 0.3, 0.3, 0.3, 11102076.559, 11102076.559
11102076.559, 1.0
*EXPANSION, TYPE=ORTHO, ZERO=0.0
5.6e-06, 5.6e-06, 5.6e-06, -1.0
5.6e-06, 5.6e-06, 5.6e-06, 1.0
*SOLID SECTION, ELSET=E63, MATERIAL=Alloy_713LC_E63
*MATERIAL, NAME=Alloy_713LC_E64
**  ELSET VOL FRAC = 1.0
*DENSITY
0.000748533, -1.0
0.000748533, 1.0
*ELASTIC, TYPE=ENGINEERING CONSTANTS
28873091.7796, 28873091.7796, 28873091.7796, 0.3, 0.3, 0.3, 11105035.2998, 11105035.2998
11105035.2998, -1.0
28865399.0534, 28865399.0534, 28865399.0534, 0.3, 0.3, 0.3, 11102076.559, 11102076.559
11102076.559, 1.0
*EXPANSION, TYPE=ORTHO, ZERO=0.0
5.6e-06, 5.6e-06, 5.6e-06, -1.0
5.6e-06, 5.6e-06, 5.6e-06, 1.0
*SOLID SECTION, ELSET=E64, MATERIAL=Alloy_713LC_E64
*MATERIAL, NAME=Alloy_713LC_E65
**  ELSET VOL FRAC = 1.0
*DENSITY
0.000748533, -1.0
0.000748533, 1.0
*ELASTIC, TYPE=ENGINEERING CONSTANTS
28873091.7796, 28873091.7796, 28873091.7796, 0.3, 0.3, 0.3, 11105035.2998, 11105035.2998
11105035.2998, -1.0
28865399.0534, 28865399.0534, 28865399.0534, 0.3, 0.3, 0.3, 11102076.559, 11102076.559
11102076.559, 1.0
*EXPANSION, TYPE=ORTHO, ZERO=0.0
5.6e-06, 5.6e-06, 5.6e-06, -1.0
5.6e-06, 5.6e-06, 5.6e-06, 1.0
*SOLID SECTION, ELSET=E65, MATERIAL=Alloy_713LC_E65
*MATERIAL, NAME=Alloy_713LC_E66
**  ELSET VOL FRAC = 1.0
*DENSITY
0.000748533, -1.0
0.000748533, 1.0
*ELASTIC, TYPE=ENGINEERING CONSTANTS
28873091.7796, 28873091.7796, 28873091.7796, 0.3, 0.3, 0.3, 11105035.2998, 11105035.2998
11105035.2998, -1.0
28865399.0534, 28865399.0534, 28865399.0534, 0.3, 0.3, 0.3, 11102076.559, 11102076.559
11102076.559, 1.0
*EXPANSION, TYPE=ORTHO, ZERO=0.0
5.6e-06, 5.6e-06, 5.6e-06, -1.0
5.6e-06, 5.6e-06, 5.6e-06, 1.0
*SOLID SECTION, ELSET=E66, MATERIAL=Alloy_713LC_E66
*MATERIAL, NAME=Alloy_713LC_E67
**  ELSET VOL FRAC = 1.0
*DENSITY
0.000748533, -1.0
0.000748533, 1.0
*ELASTIC, TYPE=ENGINEERING CONSTANTS
28873091.7796, 28873091.7796, 28873091.7796, 0.3, 0.3, 0.3, 11105035.2998, 11105035.2998
11105035.2998, -1.0
28865399.0534, 28865399.0534, 28865399.0534, 0.3, 0.3, 0.3, 11102076.559, 11102076.559
11102076.559, 1.0
*EXPANSION, TYPE=ORTHO, ZERO=0.0
5.6e-06, 5.6e-06, 5.6e-06, -1.0
5.6e-06, 5.6e-06, 5.6e-06, 1.0
*SOLID SECTION, ELSET=E67, MATERIAL=Alloy_713LC_E67
*MATERIAL, NAME=Alloy_713LC_E68
**  ELSET VOL FRAC = 1.0
*DENSITY
0.000748533, -1.0
0.000748533, 1.0
*ELASTIC, TYPE=ENGINEERING CONSTANTS
28873091.7796, 28873091.7796, 28873091.7796, 0.3, 0.3, 0.3, 11105035.2998, 11105035.2998
11105035.2998, -1.0
28865399.0534, 28865399.0534, 28865399.0534, 0.3, 0.3, 0.3, 11102076.559, 11102076.559
11102076.559, 1.0
*EXPANSION, TYPE=ORTHO, ZERO=0.0
5.6e-06, 5.6e-06, 5.6e-06, -1.0
5.6e-06, 5.6e-06, 5.6e-06, 1.0
*SOLID SECTION, ELSET=E68, MATERIAL=Alloy_713LC_E68
*MATERIAL, NAME=Alloy_713LC_E69
**  ELSET VOL FRAC = 1.0
*DENSITY
0.000748533, -1.0
0.000748533, 1.0
*ELASTIC, TYPE=ENGINEERING CONSTANTS
28873091.7796, 28873091.7796, 28873091.7796, 0.3, 0.3, 0.3, 11105035.2998, 11105035.2998
11105035.2998, -1.0
28865399.0534, 28865399.0534, 28865399.0534, 0.3, 0.3, 0.3, 11102076.559, 11102076.559
11102076.559, 1.0
*EXPANSION, TYPE=ORTHO, ZERO=0.0
5.6e-06, 5.6e-06, 5.6e-06, -1.0
5.6e-06, 5.6e-06, 5.6e-06, 1.0
*SOLID SECTION, ELSET=E69, MATERIAL=Alloy_713LC_E69
*MATERIAL, NAME=Alloy_713LC_E70
**  ELSET VOL FRAC = 1.0
*DENSITY
0.000748533, -1.0
0.000748533, 1.0
*ELASTIC, TYPE=ENGINEERING CONSTANTS
28873091.7796, 28873091.7796, 28873091.7796, 0.3, 0.3, 0.3, 11105035.2998, 11105035.2998
11105035.2998, -1.0
28865399.0534, 28865399.0534, 28865399.0534, 0.3, 0.3, 0.3, 11102076.559, 11102076.559
11102076.559, 1.0
*EXPANSION, TYPE=ORTHO, ZERO=0.0
5.6e-06, 5.6e-06, 5.6e-06, -1.0
5.6e-06, 5.6e-06, 5.6e-06, 1.0
*SOLID SECTION, ELSET=E70, MATERIAL=Alloy_713LC_E70
*MATERIAL, NAME=Alloy_713LC_E71
**  ELSET VOL FRAC = 1.0
*DENSITY
0.000748533, -1.0
0.000748533, 1.0
*ELASTIC, TYPE=ENGINEERING CONSTANTS
28873091.7796, 28873091.7796, 28873091.7796, 0.3, 0.3, 0.3, 11105035.2998, 11105035.2998
11105035.2998, -1.0
28865399.0534, 28865399.0534, 28865399.0534, 0.3, 0.3, 0.3, 11102076.559, 11102076.559
11102076.559, 1.0
*EXPANSION, TYPE=ORTHO, ZERO=0.0
5.6e-06, 5.6e-06, 5.6e-06, -1.0
5.6e-06, 5.6e-06, 5.6e-06, 1.0
*SOLID SECTION, ELSET=E71, MATERIAL=Alloy_713LC_E71
*MATERIAL, NAME=Alloy_713LC_E72
**  ELSET VOL FRAC = 1.0
*DENSITY
0.000748533, -1.0
0.000748533, 1.0
*ELASTIC, TYPE=ENGINEERING CONSTANTS
28873091.7796, 28873091.7796, 28873091.7796, 0.3, 0.3, 0.3, 11105035.2998, 11105035.2998
11105035.2998, -1.0
28865399.0534, 28865399.0534, 28865399.0534, 0.3, 0.3, 0.3, 11102076.559, 11102076.559
11102076.559, 1.0
*EXPANSION, TYPE=ORTHO, ZERO=0.0
5.6e-06, 5.6e-06, 5.6e-06, -1.0
5.6e-06, 5.6e-06, 5.6e-06, 1.0
*SOLID SECTION, ELSET=E72, MATERIAL=Alloy_713LC_E72
*MATERIAL, NAME=Alloy_713LC_E73
**  ELSET VOL FRAC = 1.0
*DENSITY
0.000748533, -1.0
0.000748533, 1.0
*ELASTIC, TYPE=ENGINEERING CONSTANTS
28873091.7796, 28873091.7796, 28873091.7796, 0.3, 0.3, 0.3, 11105035.2998, 11105035.2998
11105035.2998, -1.0
28865399.0534, 28865399.0534, 28865399.0534, 0.3, 0.3, 0.3, 11102076.559, 11102076.559
11102076.559, 1.0
*EXPANSION, TYPE=ORTHO, ZERO=0.0
5.6e-06, 5.6e-06, 5.6e-06, -1.0
5.6e-06, 5.6e-06, 5.6e-06, 1.0
*SOLID SECTION, ELSET=E73, MATERIAL=Alloy_713LC_E73
*MATERIAL, NAME=Alloy_713LC_E74
**  ELSET VOL FRAC = 1.0
*DENSITY
0.000748533, -1.0
0.000748533, 1.0
*ELASTIC, TYPE=ENGINEERING CONSTANTS
28873091.7796, 28873091.7796, 28873091.7796, 0.3, 0.3, 0.3, 11105035.2998, 11105035.2998
11105035.2998, -1.0
28865399.0534, 28865399.0534, 28865399.0534, 0.3, 0.3, 0.3, 11102076.559, 11102076.559
11102076.559, 1.0
*EXPANSION, TYPE=ORTHO, ZERO=0.0
5.6e-06, 5.6e-06, 5.6e-06, -1.0
5.6e-06, 5.6e-06, 5.6e-06, 1.0
*SOLID SECTION, ELSET=E74, MATERIAL=Alloy_713LC_E74
*MATERIAL, NAME=Alloy_713LC_E75
**  ELSET VOL FRAC = 1.0
*DENSITY
0.000748533, -1.0
0.000748533, 1.0
*ELASTIC, TYPE=ENGINEERING CONSTANTS
28873091.7796, 28873091.7796, 28873091.7796, 0.3, 0.3, 0.3, 11105035.2998, 11105035.2998
11105035.2998, -1.0
28865399.0534, 28865399.0534, 28865399.0534, 0.3, 0.3, 0.3, 11102076.559, 11102076.559
11102076.559, 1.0
*EXPANSION, TYPE=ORTHO, ZERO=0.0
5.6e-06, 5.6e-06, 5.6e-06, -1.0
5.6e-06, 5.6e-06, 5.6e-06, 1.0
*SOLID SECTION, ELSET=E75, MATERIAL=Alloy_713LC_E75
*MATERIAL, NAME=Alloy_713LC_E76
**  ELSET VOL FRAC = 1.0
*DENSITY
0.000748533, -1.0
0.000748533, 1.0
*ELASTIC, TYPE=ENGINEERING CONSTANTS
28873091.7796, 28873091.7796, 28873091.7796, 0.3, 0.3, 0.3, 11105035.2998, 11105035.2998
11105035.2998, -1.0
28865399.0534, 28865399.0534, 28865399.0534, 0.3, 0.3, 0.3, 11102076.559, 11102076.559
11102076.559, 1.0
*EXPANSION, TYPE=ORTHO, ZERO=0.0
5.6e-06, 5.6e-06, 5.6e-06, -1.0
5.6e-06, 5.6e-06, 5.6e-06, 1.0
*SOLID SECTION, ELSET=E76, MATERIAL=Alloy_713LC_E76
*MATERIAL, NAME=Alloy_713LC_E77
**  ELSET VOL FRAC = 1.0
*DENSITY
0.000748533, -1.0
0.000748533, 1.0
*ELASTIC, TYPE=ENGINEERING CONSTANTS
28873091.7796, 28873091.7796, 28873091.7796, 0.3, 0.3, 0.3, 11105035.2998, 11105035.2998
11105035.2998, -1.0
28865399.0534, 28865399.0534, 28865399.0534, 0.3, 0.3, 0.3, 11102076.559, 11102076.559
11102076.559, 1.0
*EXPANSION, TYPE=ORTHO, ZERO=0.0
5.6e-06, 5.6e-06, 5.6e-06, -1.0
5.6e-06, 5.6e-06, 5.6e-06, 1.0
*SOLID SECTION, ELSET=E77, MATERIAL=Alloy_713LC_E77
*MATERIAL, NAME=Alloy_713LC_E78
**  ELSET VOL FRAC = 1.0
*DENSITY
0.000748533, -1.0
0.000748533, 1.0
*ELASTIC, TYPE=ENGINEERING CONSTANTS
28873091.7796, 28873091.7796, 28873091.7796, 0.3, 0.3, 0.3, 11105035.2998, 11105035.2998
11105035.2998, -1.0
28865399.0534, 28865399.0534, 28865399.0534, 0.3, 0.3, 0.3, 11102076.559, 11102076.559
11102076.559, 1.0
*EXPANSION, TYPE=ORTHO, ZERO=0.0
5.6e-06, 5.6e-06, 5.6e-06, -1.0
5.6e-06, 5.6e-06, 5.6e-06, 1.0
*SOLID SECTION, ELSET=E78, MATERIAL=Alloy_713LC_E78
*MATERIAL, NAME=Alloy_713LC_E79
**  ELSET VOL FRAC = 1.0
*DENSITY
0.000748533, -1.0
0.000748533, 1.0
*ELASTIC, TYPE=ENGINEERING CONSTANTS
28873091.7796, 28873091.7796, 28873091.7796, 0.3, 0.3, 0.3, 11105035.2998, 11105035.2998
11105035.2998, -1.0
28865399.0534, 28865399.0534, 28865399.0534, 0.3, 0.3, 0.3, 11102076.559, 11102076.559
11102076.559, 1.0
*EXPANSION, TYPE=ORTHO, ZERO=0.0
5.6e-06, 5.6e-06, 5.6e-06, -1.0
5.6e-06, 5.6e-06, 5.6e-06, 1.0
*SOLID SECTION, ELSET=E79, MATERIAL=Alloy_713LC_E79
*MATERIAL, NAME=Alloy_713LC_E80
**  ELSET VOL FRAC = 1.0
*DENSITY
0.000748533, -1.0
0.000748533, 1.0
*ELASTIC, TYPE=ENGINEERING CONSTANTS
28873091.7796, 28873091.7796, 28873091.7796, 0.3, 0.3, 0.3, 11105035.2998, 11105035.2998
11105035.2998, -1.0
28865399.0534, 28865399.0534, 28865399.0534, 0.3, 0.3, 0.3, 11102076.559, 11102076.559
11102076.559, 1.0
*EXPANSION, TYPE=ORTHO, ZERO=0.0
5.6e-06, 5.6e-06, 5.6e-06, -1.0
5.6e-06, 5.6e-06, 5.6e-06, 1.0
*SOLID SECTION, ELSET=E80, MATERIAL=Alloy_713LC_E80
********************************************************************************
*INITIAL CONDITIONS, TYPE=TEMPERATURE
NALL, 0.0
********************************************************************************
*BOUNDARY
363, 1
363, 2
363, 3
368, 1
368, 2
368, 3
373, 1
373, 2
373, 3
378, 1
378, 2
378, 3
383, 1
383, 2
383, 3
388, 1
388, 2
388, 3
393, 1
393, 2
** ... 166 like lines cut
*STEP
*STATIC
*DLOAD
2, P2, 10000.0
4, P2, 10000.0
6, P2, 10000.0
8, P2, 10000.0
10, P2, 10000.0
12, P2, 10000.0
14, P2, 10000.0
16, P2, 10000.0
18, P2, 10000.0
20, P2, 10000.0
22, P2, 10000.0
24, P2, 10000.0
26, P2, 10000.0
28, P2, 10000.0
30, P2, 10000.0
32, P2, 10000.0
34, P2, 10000.0
36, P2, 10000.0
38, P2, 10000.0
40, P2, 10000.0
** ... 20 like lines cut
********************************************************************************
*NODE PRINT, NSET=NALL
U
*NODE FILE, OUTPUT=3D
U
*EL PRINT, ELSET=EALL
S
*EL FILE, OUTPUT=3D
S
*END STEP
********************************************************************************
